
Spectre (R) Circuit Simulator
Version 23.1.0.275.isr2 64bit -- 13 Oct 2023
Copyright (C) 1989-2023 Cadence Design Systems, Inc. All rights reserved worldwide. Cadence and Spectre are registered trademarks of Cadence Design Systems, Inc. All others are the property of their respective holders.

Includes RSA BSAFE(R) Cryptographic or Security Protocol Software from RSA Security, Inc.

User: bas33767   Host: ei-vm-018.othr.de   HostID: 780A2301   PID: 1002833
Memory  available: 183.8725 GB  physical: 202.8133 GB
Linux   : Red Hat Enterprise Linux release 8.10 (Ootpa)
CPU Type: AMD Ryzen Threadripper PRO 5965WX 24-Cores
All processors running at 3792.9 MHz
        Socket: Processors
        0:       0,  1,  2,  3,  4,  5,  6,  7,  8,  9
                10, 11, 12, 13, 14, 15, 16, 17, 18, 19
                20, 21, 22, 23, 24, 25, 26, 27, 28, 29
                30, 31
        
System load averages (1min, 5min, 15min) : 1.8 %, 1.8 %, 3.1 %
HPC is enabled


Simulating `tempus_pathsim/path_1_setup.sp' on ei-vm-018.othr.de at 8:57:30 PM, Thur Jul 17, 2025 (process id: 1002833).
Current working directory: /home/bas33767/Desktop/DD_Lab_exercise/OpenFPGA/Fabric/synthesizable_verilog/PNR
Command line:
    /eda/cadence/2024-25/RHELx86/SSV_23.11.000/tools.lnx86/bin/spectre  \
        -64 +aps +spice -outdir tempus_pathsim/  \
        tempus_pathsim/path_1_setup.sp

Licensing Information:
[20:57:30.333708] Configured Lic search path (22.01-s002): 5280@hs-lic3.oth-regensburg.de:27003@hs-lic1.oth-regensburg.de:27003@hs-lic1.oth-regensburg.de:

Licensing Information:
[20:57:30.268617] Periodic Lic check successful

Loading /eda/cadence/2024-25/RHELx86/SSV_23.11.000/tools.lnx86/cmi/lib/64bit/5.0/libinfineon_sh.so ...
Loading /eda/cadence/2024-25/RHELx86/SSV_23.11.000/tools.lnx86/cmi/lib/64bit/5.0/libphilips_I_sh.so ...
Loading /eda/cadence/2024-25/RHELx86/SSV_23.11.000/tools.lnx86/cmi/lib/64bit/5.0/libphilips_sh.so ...
Loading /eda/cadence/2024-25/RHELx86/SSV_23.11.000/tools.lnx86/cmi/lib/64bit/5.0/libsparam_sh.so ...
Loading /eda/cadence/2024-25/RHELx86/SSV_23.11.000/tools.lnx86/cmi/lib/64bit/5.0/libstmodels_sh.so ...
Reading file:  /home/bas33767/Desktop/DD_Lab_exercise/OpenFPGA/Fabric/synthesizable_verilog/PNR/tempus_pathsim/path_1_setup.sp
Reading link:  /eda
Reading file:  /mnt/cae_storage_sw/eda/cadence/2024-25/RHELx86/SSV_23.11.000/tools.lnx86/spectre/etc/configs/spectre.cfg
Time for NDB Parsing: CPU = 185.674 ms, elapsed = 6.11645 s.
Time accumulated: CPU = 997.589 ms, elapsed = 6.11645 s.
Peak resident memory used = 166 Mbytes.


Error found by spectre in `Stage1', during circuit read-in.
    ERROR (SFE-23): "tempus_pathsim/path_1_setup.sp" 83: The instance `Xcby_2__2_/mem_right_ipin_9/DFFR_0_/g6' is referencing an undefined model or subcircuit, `sg13g2_inv_1'. Either include the file containing the definition of `sg13g2_inv_1', or define `sg13g2_inv_1' before running the simulation.
    ERROR (SFE-23): "tempus_pathsim/path_1_setup.sp" 86: The instance `Xcby_2__2_/mem_right_ipin_8/DFFR_1_/g6' is referencing an undefined model or subcircuit, `sg13g2_inv_1'. Either include the file containing the definition of `sg13g2_inv_1', or define `sg13g2_inv_1' before running the simulation.
    ERROR (SFE-23): "tempus_pathsim/path_1_setup.sp" 89: The instance `Xcby_2__2_/mem_right_ipin_8/DFFR_0_/g6' is referencing an undefined model or subcircuit, `sg13g2_inv_1'. Either include the file containing the definition of `sg13g2_inv_1', or define `sg13g2_inv_1' before running the simulation.
    ERROR (SFE-23): "tempus_pathsim/path_1_setup.sp" 92: The instance `Xcby_2__2_/mem_right_ipin_7/DFFR_1_/g6' is referencing an undefined model or subcircuit, `sg13g2_inv_1'. Either include the file containing the definition of `sg13g2_inv_1', or define `sg13g2_inv_1' before running the simulation.
    ERROR (SFE-23): "tempus_pathsim/path_1_setup.sp" 95: The instance `Xcby_2__2_/mem_right_ipin_7/DFFR_0_/g6' is referencing an undefined model or subcircuit, `sg13g2_inv_1'. Either include the file containing the definition of `sg13g2_inv_1', or define `sg13g2_inv_1' before running the simulation.
    ERROR (SFE-23): "tempus_pathsim/path_1_setup.sp" 98: The instance `Xcby_2__2_/mem_right_ipin_6/DFFR_1_/g6' is referencing an undefined model or subcircuit, `sg13g2_inv_1'. Either include the file containing the definition of `sg13g2_inv_1', or define `sg13g2_inv_1' before running the simulation.
    ERROR (SFE-23): "tempus_pathsim/path_1_setup.sp" 101: The instance `Xcby_2__2_/mem_right_ipin_6/DFFR_0_/g6' is referencing an undefined model or subcircuit, `sg13g2_inv_1'. Either include the file containing the definition of `sg13g2_inv_1', or define `sg13g2_inv_1' before running the simulation.
    ERROR (SFE-23): "tempus_pathsim/path_1_setup.sp" 104: The instance `Xcby_2__2_/mem_right_ipin_5/DFFR_1_/g6' is referencing an undefined model or subcircuit, `sg13g2_inv_1'. Either include the file containing the definition of `sg13g2_inv_1', or define `sg13g2_inv_1' before running the simulation.
    ERROR (SFE-23): "tempus_pathsim/path_1_setup.sp" 107: The instance `Xcby_2__2_/mem_right_ipin_5/DFFR_0_/g6' is referencing an undefined model or subcircuit, `sg13g2_inv_1'. Either include the file containing the definition of `sg13g2_inv_1', or define `sg13g2_inv_1' before running the simulation.
    ERROR (SFE-23): "tempus_pathsim/path_1_setup.sp" 110: The instance `Xcby_2__2_/mem_right_ipin_4/DFFR_2_/g6' is referencing an undefined model or subcircuit, `sg13g2_inv_1'. Either include the file containing the definition of `sg13g2_inv_1', or define `sg13g2_inv_1' before running the simulation.
    ERROR (SFE-23): "tempus_pathsim/path_1_setup.sp" 113: The instance `Xcby_2__2_/mem_right_ipin_4/DFFR_1_/g6' is referencing an undefined model or subcircuit, `sg13g2_inv_1'. Either include the file containing the definition of `sg13g2_inv_1', or define `sg13g2_inv_1' before running the simulation.
    ERROR (SFE-23): "tempus_pathsim/path_1_setup.sp" 116: The instance `Xcby_2__2_/mem_right_ipin_4/DFFR_0_/g6' is referencing an undefined model or subcircuit, `sg13g2_inv_1'. Either include the file containing the definition of `sg13g2_inv_1', or define `sg13g2_inv_1' before running the simulation.
    ERROR (SFE-23): "tempus_pathsim/path_1_setup.sp" 119: The instance `Xcby_2__2_/mem_right_ipin_3/DFFR_2_/g6' is referencing an undefined model or subcircuit, `sg13g2_inv_1'. Either include the file containing the definition of `sg13g2_inv_1', or define `sg13g2_inv_1' before running the simulation.
    ERROR (SFE-23): "tempus_pathsim/path_1_setup.sp" 122: The instance `Xcby_2__2_/mem_right_ipin_3/DFFR_1_/g6' is referencing an undefined model or subcircuit, `sg13g2_inv_1'. Either include the file containing the definition of `sg13g2_inv_1', or define `sg13g2_inv_1' before running the simulation.
    ERROR (SFE-23): "tempus_pathsim/path_1_setup.sp" 125: The instance `Xcby_2__2_/mem_right_ipin_3/DFFR_0_/g6' is referencing an undefined model or subcircuit, `sg13g2_inv_1'. Either include the file containing the definition of `sg13g2_inv_1', or define `sg13g2_inv_1' before running the simulation.
    ERROR (SFE-23): "tempus_pathsim/path_1_setup.sp" 128: The instance `Xcby_2__2_/mem_right_ipin_2/DFFR_2_/g6' is referencing an undefined model or subcircuit, `sg13g2_inv_1'. Either include the file containing the definition of `sg13g2_inv_1', or define `sg13g2_inv_1' before running the simulation.
    ERROR (SFE-23): "tempus_pathsim/path_1_setup.sp" 131: The instance `Xcby_2__2_/mem_right_ipin_2/DFFR_1_/g6' is referencing an undefined model or subcircuit, `sg13g2_inv_1'. Either include the file containing the definition of `sg13g2_inv_1', or define `sg13g2_inv_1' before running the simulation.
    ERROR (SFE-23): "tempus_pathsim/path_1_setup.sp" 134: The instance `Xcby_2__2_/mem_right_ipin_2/DFFR_0_/g6' is referencing an undefined model or subcircuit, `sg13g2_inv_1'. Either include the file containing the definition of `sg13g2_inv_1', or define `sg13g2_inv_1' before running the simulation.
    ERROR (SFE-23): "tempus_pathsim/path_1_setup.sp" 137: The instance `Xcby_2__2_/mem_right_ipin_1/DFFR_2_/g6' is referencing an undefined model or subcircuit, `sg13g2_inv_1'. Either include the file containing the definition of `sg13g2_inv_1', or define `sg13g2_inv_1' before running the simulation.
    ERROR (SFE-23): "tempus_pathsim/path_1_setup.sp" 140: The instance `Xcby_2__2_/mem_right_ipin_1/DFFR_1_/g6' is referencing an undefined model or subcircuit, `sg13g2_inv_1'. Either include the file containing the definition of `sg13g2_inv_1', or define `sg13g2_inv_1' before running the simulation.
    ERROR (SFE-23): "tempus_pathsim/path_1_setup.sp" 143: The instance `Xcby_2__2_/mem_right_ipin_1/DFFR_0_/g6' is referencing an undefined model or subcircuit, `sg13g2_inv_1'. Either include the file containing the definition of `sg13g2_inv_1', or define `sg13g2_inv_1' before running the simulation.
    ERROR (SFE-23): "tempus_pathsim/path_1_setup.sp" 146: The instance `Xcby_2__2_/mem_right_ipin_0/DFFR_2_/g6' is referencing an undefined model or subcircuit, `sg13g2_inv_1'. Either include the file containing the definition of `sg13g2_inv_1', or define `sg13g2_inv_1' before running the simulation.
    ERROR (SFE-23): "tempus_pathsim/path_1_setup.sp" 149: The instance `Xcby_2__2_/mem_right_ipin_0/DFFR_1_/g6' is referencing an undefined model or subcircuit, `sg13g2_inv_1'. Either include the file containing the definition of `sg13g2_inv_1', or define `sg13g2_inv_1' before running the simulation.
    ERROR (SFE-23): "tempus_pathsim/path_1_setup.sp" 152: The instance `Xcby_2__2_/mem_right_ipin_0/DFFR_0_/g6' is referencing an undefined model or subcircuit, `sg13g2_inv_1'. Either include the file containing the definition of `sg13g2_inv_1', or define `sg13g2_inv_1' before running the simulation.
    ERROR (SFE-23): "tempus_pathsim/path_1_setup.sp" 155: The instance `Xcby_2__2_/mem_left_ipin_7/DFFR_2_/g6' is referencing an undefined model or subcircuit, `sg13g2_inv_1'. Either include the file containing the definition of `sg13g2_inv_1', or define `sg13g2_inv_1' before running the simulation.
    ERROR (SFE-23): "tempus_pathsim/path_1_setup.sp" 158: The instance `Xcby_2__2_/mem_left_ipin_7/DFFR_1_/g6' is referencing an undefined model or subcircuit, `sg13g2_inv_1'. Either include the file containing the definition of `sg13g2_inv_1', or define `sg13g2_inv_1' before running the simulation.
    ERROR (SFE-23): "tempus_pathsim/path_1_setup.sp" 161: The instance `Xcby_2__2_/mem_left_ipin_7/DFFR_0_/g6' is referencing an undefined model or subcircuit, `sg13g2_inv_1'. Either include the file containing the definition of `sg13g2_inv_1', or define `sg13g2_inv_1' before running the simulation.
    ERROR (SFE-23): "tempus_pathsim/path_1_setup.sp" 164: The instance `Xcby_2__2_/mem_left_ipin_6/DFFR_2_/g6' is referencing an undefined model or subcircuit, `sg13g2_inv_1'. Either include the file containing the definition of `sg13g2_inv_1', or define `sg13g2_inv_1' before running the simulation.
    ERROR (SFE-23): "tempus_pathsim/path_1_setup.sp" 167: The instance `Xcby_2__2_/mem_left_ipin_6/DFFR_1_/g6' is referencing an undefined model or subcircuit, `sg13g2_inv_1'. Either include the file containing the definition of `sg13g2_inv_1', or define `sg13g2_inv_1' before running the simulation.
    ERROR (SFE-23): "tempus_pathsim/path_1_setup.sp" 170: The instance `Xcby_2__2_/mem_left_ipin_6/DFFR_0_/g6' is referencing an undefined model or subcircuit, `sg13g2_inv_1'. Either include the file containing the definition of `sg13g2_inv_1', or define `sg13g2_inv_1' before running the simulation.
    ERROR (SFE-23): "tempus_pathsim/path_1_setup.sp" 173: The instance `Xcby_2__2_/mem_left_ipin_5/DFFR_2_/g6' is referencing an undefined model or subcircuit, `sg13g2_inv_1'. Either include the file containing the definition of `sg13g2_inv_1', or define `sg13g2_inv_1' before running the simulation.
    ERROR (SFE-23): "tempus_pathsim/path_1_setup.sp" 176: The instance `Xcby_2__2_/mem_left_ipin_5/DFFR_1_/g6' is referencing an undefined model or subcircuit, `sg13g2_inv_1'. Either include the file containing the definition of `sg13g2_inv_1', or define `sg13g2_inv_1' before running the simulation.
    ERROR (SFE-23): "tempus_pathsim/path_1_setup.sp" 179: The instance `Xcby_2__2_/mem_left_ipin_5/DFFR_0_/g6' is referencing an undefined model or subcircuit, `sg13g2_inv_1'. Either include the file containing the definition of `sg13g2_inv_1', or define `sg13g2_inv_1' before running the simulation.
    ERROR (SFE-23): "tempus_pathsim/path_1_setup.sp" 182: The instance `Xcby_2__2_/mem_left_ipin_4/DFFR_2_/g6' is referencing an undefined model or subcircuit, `sg13g2_inv_1'. Either include the file containing the definition of `sg13g2_inv_1', or define `sg13g2_inv_1' before running the simulation.
    ERROR (SFE-23): "tempus_pathsim/path_1_setup.sp" 185: The instance `Xcby_2__2_/mem_left_ipin_4/DFFR_1_/g6' is referencing an undefined model or subcircuit, `sg13g2_inv_1'. Either include the file containing the definition of `sg13g2_inv_1', or define `sg13g2_inv_1' before running the simulation.
    ERROR (SFE-23): "tempus_pathsim/path_1_setup.sp" 188: The instance `Xcby_2__2_/mem_left_ipin_4/DFFR_0_/g6' is referencing an undefined model or subcircuit, `sg13g2_inv_1'. Either include the file containing the definition of `sg13g2_inv_1', or define `sg13g2_inv_1' before running the simulation.
    ERROR (SFE-23): "tempus_pathsim/path_1_setup.sp" 191: The instance `Xcby_2__2_/mem_left_ipin_3/DFFR_2_/g6' is referencing an undefined model or subcircuit, `sg13g2_inv_1'. Either include the file containing the definition of `sg13g2_inv_1', or define `sg13g2_inv_1' before running the simulation.
    ERROR (SFE-23): "tempus_pathsim/path_1_setup.sp" 194: The instance `Xcby_2__2_/mem_left_ipin_3/DFFR_1_/g6' is referencing an undefined model or subcircuit, `sg13g2_inv_1'. Either include the file containing the definition of `sg13g2_inv_1', or define `sg13g2_inv_1' before running the simulation.
    ERROR (SFE-23): "tempus_pathsim/path_1_setup.sp" 197: The instance `Xcby_2__2_/mem_left_ipin_3/DFFR_0_/g6' is referencing an undefined model or subcircuit, `sg13g2_inv_1'. Either include the file containing the definition of `sg13g2_inv_1', or define `sg13g2_inv_1' before running the simulation.
    ERROR (SFE-23): "tempus_pathsim/path_1_setup.sp" 200: The instance `Xcby_2__2_/mem_left_ipin_2/DFFR_2_/g6' is referencing an undefined model or subcircuit, `sg13g2_inv_1'. Either include the file containing the definition of `sg13g2_inv_1', or define `sg13g2_inv_1' before running the simulation.
    ERROR (SFE-23): "tempus_pathsim/path_1_setup.sp" 203: The instance `Xcby_2__2_/mem_left_ipin_2/DFFR_1_/g6' is referencing an undefined model or subcircuit, `sg13g2_inv_1'. Either include the file containing the definition of `sg13g2_inv_1', or define `sg13g2_inv_1' before running the simulation.
    ERROR (SFE-23): "tempus_pathsim/path_1_setup.sp" 206: The instance `Xcby_2__2_/mem_left_ipin_2/DFFR_0_/g6' is referencing an undefined model or subcircuit, `sg13g2_inv_1'. Either include the file containing the definition of `sg13g2_inv_1', or define `sg13g2_inv_1' before running the simulation.
    ERROR (SFE-23): "tempus_pathsim/path_1_setup.sp" 209: The instance `Xcby_2__2_/mem_left_ipin_1/DFFR_2_/g6' is referencing an undefined model or subcircuit, `sg13g2_inv_1'. Either include the file containing the definition of `sg13g2_inv_1', or define `sg13g2_inv_1' before running the simulation.
    ERROR (SFE-23): "tempus_pathsim/path_1_setup.sp" 212: The instance `Xcby_2__2_/mem_left_ipin_1/DFFR_1_/g6' is referencing an undefined model or subcircuit, `sg13g2_inv_1'. Either include the file containing the definition of `sg13g2_inv_1', or define `sg13g2_inv_1' before running the simulation.
    ERROR (SFE-23): "tempus_pathsim/path_1_setup.sp" 215: The instance `Xcby_2__2_/mem_left_ipin_1/DFFR_0_/g6' is referencing an undefined model or subcircuit, `sg13g2_inv_1'. Either include the file containing the definition of `sg13g2_inv_1', or define `sg13g2_inv_1' before running the simulation.
    ERROR (SFE-23): "tempus_pathsim/path_1_setup.sp" 218: The instance `Xcby_2__2_/mem_left_ipin_0/DFFR_2_/g6' is referencing an undefined model or subcircuit, `sg13g2_inv_1'. Either include the file containing the definition of `sg13g2_inv_1', or define `sg13g2_inv_1' before running the simulation.
    ERROR (SFE-23): "tempus_pathsim/path_1_setup.sp" 221: The instance `Xcby_2__2_/mem_left_ipin_0/DFFR_1_/g6' is referencing an undefined model or subcircuit, `sg13g2_inv_1'. Either include the file containing the definition of `sg13g2_inv_1', or define `sg13g2_inv_1' before running the simulation.
    ERROR (SFE-23): "tempus_pathsim/path_1_setup.sp" 224: The instance `Xcby_2__2_/mem_left_ipin_0/DFFR_0_/g6' is referencing an undefined model or subcircuit, `sg13g2_inv_1'. Either include the file containing the definition of `sg13g2_inv_1', or define `sg13g2_inv_1' before running the simulation.
    ERROR (SFE-23): "tempus_pathsim/path_1_setup.sp" 227: The instance `Xcby_2__1_/mem_right_ipin_9/DFFR_1_/g6' is referencing an undefined model or subcircuit, `sg13g2_inv_1'. Either include the file containing the definition of `sg13g2_inv_1', or define `sg13g2_inv_1' before running the simulation.
    ERROR (SFE-23): "tempus_pathsim/path_1_setup.sp" 230: The instance `Xcby_2__1_/mem_right_ipin_9/DFFR_0_/g6' is referencing an undefined model or subcircuit, `sg13g2_inv_1'. Either include the file containing the definition of `sg13g2_inv_1', or define `sg13g2_inv_1' before running the simulation.
    ERROR (SFE-23): "tempus_pathsim/path_1_setup.sp" 233: The instance `Xcby_2__1_/mem_right_ipin_8/DFFR_1_/g6' is referencing an undefined model or subcircuit, `sg13g2_inv_1'. Either include the file containing the definition of `sg13g2_inv_1', or define `sg13g2_inv_1' before running the simulation.
    ERROR (SFE-23): "tempus_pathsim/path_1_setup.sp" 236: The instance `Xcby_2__1_/mem_right_ipin_8/DFFR_0_/g6' is referencing an undefined model or subcircuit, `sg13g2_inv_1'. Either include the file containing the definition of `sg13g2_inv_1', or define `sg13g2_inv_1' before running the simulation.
    ERROR (SFE-23): "tempus_pathsim/path_1_setup.sp" 239: The instance `Xcby_2__1_/mem_right_ipin_7/DFFR_1_/g6' is referencing an undefined model or subcircuit, `sg13g2_inv_1'. Either include the file containing the definition of `sg13g2_inv_1', or define `sg13g2_inv_1' before running the simulation.
    ERROR (SFE-23): "tempus_pathsim/path_1_setup.sp" 242: The instance `Xcby_2__1_/mem_right_ipin_7/DFFR_0_/g6' is referencing an undefined model or subcircuit, `sg13g2_inv_1'. Either include the file containing the definition of `sg13g2_inv_1', or define `sg13g2_inv_1' before running the simulation.
    ERROR (SFE-23): "tempus_pathsim/path_1_setup.sp" 245: The instance `Xcby_2__1_/mem_right_ipin_6/DFFR_1_/g6' is referencing an undefined model or subcircuit, `sg13g2_inv_1'. Either include the file containing the definition of `sg13g2_inv_1', or define `sg13g2_inv_1' before running the simulation.
    ERROR (SFE-23): "tempus_pathsim/path_1_setup.sp" 248: The instance `Xcby_2__1_/mem_right_ipin_6/DFFR_0_/g6' is referencing an undefined model or subcircuit, `sg13g2_inv_1'. Either include the file containing the definition of `sg13g2_inv_1', or define `sg13g2_inv_1' before running the simulation.
    ERROR (SFE-23): "tempus_pathsim/path_1_setup.sp" 251: The instance `Xcby_2__1_/mem_right_ipin_5/DFFR_1_/g6' is referencing an undefined model or subcircuit, `sg13g2_inv_1'. Either include the file containing the definition of `sg13g2_inv_1', or define `sg13g2_inv_1' before running the simulation.
    ERROR (SFE-23): "tempus_pathsim/path_1_setup.sp" 254: The instance `Xcby_2__1_/mem_right_ipin_5/DFFR_0_/g6' is referencing an undefined model or subcircuit, `sg13g2_inv_1'. Either include the file containing the definition of `sg13g2_inv_1', or define `sg13g2_inv_1' before running the simulation.
    ERROR (SFE-23): "tempus_pathsim/path_1_setup.sp" 257: The instance `Xcby_2__1_/mem_right_ipin_4/DFFR_2_/g6' is referencing an undefined model or subcircuit, `sg13g2_inv_1'. Either include the file containing the definition of `sg13g2_inv_1', or define `sg13g2_inv_1' before running the simulation.
    ERROR (SFE-23): "tempus_pathsim/path_1_setup.sp" 260: The instance `Xcby_2__1_/mem_right_ipin_4/DFFR_1_/g6' is referencing an undefined model or subcircuit, `sg13g2_inv_1'. Either include the file containing the definition of `sg13g2_inv_1', or define `sg13g2_inv_1' before running the simulation.
    ERROR (SFE-23): "tempus_pathsim/path_1_setup.sp" 263: The instance `Xcby_2__1_/mem_right_ipin_4/DFFR_0_/g6' is referencing an undefined model or subcircuit, `sg13g2_inv_1'. Either include the file containing the definition of `sg13g2_inv_1', or define `sg13g2_inv_1' before running the simulation.
    ERROR (SFE-23): "tempus_pathsim/path_1_setup.sp" 266: The instance `Xcby_2__1_/mem_right_ipin_3/DFFR_2_/g6' is referencing an undefined model or subcircuit, `sg13g2_inv_1'. Either include the file containing the definition of `sg13g2_inv_1', or define `sg13g2_inv_1' before running the simulation.
    ERROR (SFE-23): "tempus_pathsim/path_1_setup.sp" 269: The instance `Xcby_2__1_/mem_right_ipin_3/DFFR_1_/g6' is referencing an undefined model or subcircuit, `sg13g2_inv_1'. Either include the file containing the definition of `sg13g2_inv_1', or define `sg13g2_inv_1' before running the simulation.
    ERROR (SFE-23): "tempus_pathsim/path_1_setup.sp" 272: The instance `Xcby_2__1_/mem_right_ipin_3/DFFR_0_/g6' is referencing an undefined model or subcircuit, `sg13g2_inv_1'. Either include the file containing the definition of `sg13g2_inv_1', or define `sg13g2_inv_1' before running the simulation.
    ERROR (SFE-23): "tempus_pathsim/path_1_setup.sp" 275: The instance `Xcby_2__1_/mem_right_ipin_2/DFFR_2_/g6' is referencing an undefined model or subcircuit, `sg13g2_inv_1'. Either include the file containing the definition of `sg13g2_inv_1', or define `sg13g2_inv_1' before running the simulation.
    ERROR (SFE-23): "tempus_pathsim/path_1_setup.sp" 278: The instance `Xcby_2__1_/mem_right_ipin_2/DFFR_1_/g6' is referencing an undefined model or subcircuit, `sg13g2_inv_1'. Either include the file containing the definition of `sg13g2_inv_1', or define `sg13g2_inv_1' before running the simulation.
    ERROR (SFE-23): "tempus_pathsim/path_1_setup.sp" 281: The instance `Xcby_2__1_/mem_right_ipin_2/DFFR_0_/g6' is referencing an undefined model or subcircuit, `sg13g2_inv_1'. Either include the file containing the definition of `sg13g2_inv_1', or define `sg13g2_inv_1' before running the simulation.
    ERROR (SFE-23): "tempus_pathsim/path_1_setup.sp" 284: The instance `Xcby_2__1_/mem_right_ipin_1/DFFR_2_/g6' is referencing an undefined model or subcircuit, `sg13g2_inv_1'. Either include the file containing the definition of `sg13g2_inv_1', or define `sg13g2_inv_1' before running the simulation.
    ERROR (SFE-23): "tempus_pathsim/path_1_setup.sp" 287: The instance `Xcby_2__1_/mem_right_ipin_1/DFFR_1_/g6' is referencing an undefined model or subcircuit, `sg13g2_inv_1'. Either include the file containing the definition of `sg13g2_inv_1', or define `sg13g2_inv_1' before running the simulation.
    ERROR (SFE-23): "tempus_pathsim/path_1_setup.sp" 290: The instance `Xcby_2__1_/mem_right_ipin_1/DFFR_0_/g6' is referencing an undefined model or subcircuit, `sg13g2_inv_1'. Either include the file containing the definition of `sg13g2_inv_1', or define `sg13g2_inv_1' before running the simulation.
    ERROR (SFE-23): "tempus_pathsim/path_1_setup.sp" 293: The instance `Xcby_2__1_/mem_right_ipin_0/DFFR_2_/g6' is referencing an undefined model or subcircuit, `sg13g2_inv_1'. Either include the file containing the definition of `sg13g2_inv_1', or define `sg13g2_inv_1' before running the simulation.
    ERROR (SFE-23): "tempus_pathsim/path_1_setup.sp" 296: The instance `Xcby_2__1_/mem_right_ipin_0/DFFR_1_/g6' is referencing an undefined model or subcircuit, `sg13g2_inv_1'. Either include the file containing the definition of `sg13g2_inv_1', or define `sg13g2_inv_1' before running the simulation.
    ERROR (SFE-23): "tempus_pathsim/path_1_setup.sp" 299: The instance `Xcby_2__1_/mem_right_ipin_0/DFFR_0_/g6' is referencing an undefined model or subcircuit, `sg13g2_inv_1'. Either include the file containing the definition of `sg13g2_inv_1', or define `sg13g2_inv_1' before running the simulation.
    ERROR (SFE-23): "tempus_pathsim/path_1_setup.sp" 302: The instance `Xcby_2__1_/mem_left_ipin_7/DFFR_2_/g6' is referencing an undefined model or subcircuit, `sg13g2_inv_1'. Either include the file containing the definition of `sg13g2_inv_1', or define `sg13g2_inv_1' before running the simulation.
    ERROR (SFE-23): "tempus_pathsim/path_1_setup.sp" 305: The instance `Xcby_2__1_/mem_left_ipin_7/DFFR_1_/g6' is referencing an undefined model or subcircuit, `sg13g2_inv_1'. Either include the file containing the definition of `sg13g2_inv_1', or define `sg13g2_inv_1' before running the simulation.
    ERROR (SFE-23): "tempus_pathsim/path_1_setup.sp" 308: The instance `Xcby_2__1_/mem_left_ipin_7/DFFR_0_/g6' is referencing an undefined model or subcircuit, `sg13g2_inv_1'. Either include the file containing the definition of `sg13g2_inv_1', or define `sg13g2_inv_1' before running the simulation.
    ERROR (SFE-23): "tempus_pathsim/path_1_setup.sp" 311: The instance `Xcby_2__1_/mem_left_ipin_6/DFFR_2_/g6' is referencing an undefined model or subcircuit, `sg13g2_inv_1'. Either include the file containing the definition of `sg13g2_inv_1', or define `sg13g2_inv_1' before running the simulation.
    ERROR (SFE-23): "tempus_pathsim/path_1_setup.sp" 314: The instance `Xcby_2__1_/mem_left_ipin_6/DFFR_1_/g6' is referencing an undefined model or subcircuit, `sg13g2_inv_1'. Either include the file containing the definition of `sg13g2_inv_1', or define `sg13g2_inv_1' before running the simulation.
    ERROR (SFE-23): "tempus_pathsim/path_1_setup.sp" 317: The instance `Xcby_2__1_/mem_left_ipin_6/DFFR_0_/g6' is referencing an undefined model or subcircuit, `sg13g2_inv_1'. Either include the file containing the definition of `sg13g2_inv_1', or define `sg13g2_inv_1' before running the simulation.
    ERROR (SFE-23): "tempus_pathsim/path_1_setup.sp" 320: The instance `Xcby_2__1_/mem_left_ipin_5/DFFR_2_/g6' is referencing an undefined model or subcircuit, `sg13g2_inv_1'. Either include the file containing the definition of `sg13g2_inv_1', or define `sg13g2_inv_1' before running the simulation.
    ERROR (SFE-23): "tempus_pathsim/path_1_setup.sp" 323: The instance `Xcby_2__1_/mem_left_ipin_5/DFFR_1_/g6' is referencing an undefined model or subcircuit, `sg13g2_inv_1'. Either include the file containing the definition of `sg13g2_inv_1', or define `sg13g2_inv_1' before running the simulation.
    ERROR (SFE-23): "tempus_pathsim/path_1_setup.sp" 326: The instance `Xcby_2__1_/mem_left_ipin_5/DFFR_0_/g6' is referencing an undefined model or subcircuit, `sg13g2_inv_1'. Either include the file containing the definition of `sg13g2_inv_1', or define `sg13g2_inv_1' before running the simulation.
    ERROR (SFE-23): "tempus_pathsim/path_1_setup.sp" 329: The instance `Xcby_2__1_/mem_left_ipin_4/DFFR_2_/g6' is referencing an undefined model or subcircuit, `sg13g2_inv_1'. Either include the file containing the definition of `sg13g2_inv_1', or define `sg13g2_inv_1' before running the simulation.
    ERROR (SFE-23): "tempus_pathsim/path_1_setup.sp" 332: The instance `Xcby_2__1_/mem_left_ipin_4/DFFR_1_/g6' is referencing an undefined model or subcircuit, `sg13g2_inv_1'. Either include the file containing the definition of `sg13g2_inv_1', or define `sg13g2_inv_1' before running the simulation.
    ERROR (SFE-23): "tempus_pathsim/path_1_setup.sp" 335: The instance `Xcby_2__1_/mem_left_ipin_4/DFFR_0_/g6' is referencing an undefined model or subcircuit, `sg13g2_inv_1'. Either include the file containing the definition of `sg13g2_inv_1', or define `sg13g2_inv_1' before running the simulation.
    ERROR (SFE-23): "tempus_pathsim/path_1_setup.sp" 338: The instance `Xcby_2__1_/mem_left_ipin_3/DFFR_2_/g6' is referencing an undefined model or subcircuit, `sg13g2_inv_1'. Either include the file containing the definition of `sg13g2_inv_1', or define `sg13g2_inv_1' before running the simulation.
    ERROR (SFE-23): "tempus_pathsim/path_1_setup.sp" 341: The instance `Xcby_2__1_/mem_left_ipin_3/DFFR_1_/g6' is referencing an undefined model or subcircuit, `sg13g2_inv_1'. Either include the file containing the definition of `sg13g2_inv_1', or define `sg13g2_inv_1' before running the simulation.
    ERROR (SFE-23): "tempus_pathsim/path_1_setup.sp" 344: The instance `Xcby_2__1_/mem_left_ipin_3/DFFR_0_/g6' is referencing an undefined model or subcircuit, `sg13g2_inv_1'. Either include the file containing the definition of `sg13g2_inv_1', or define `sg13g2_inv_1' before running the simulation.
    ERROR (SFE-23): "tempus_pathsim/path_1_setup.sp" 347: The instance `Xcby_2__1_/mem_left_ipin_2/DFFR_2_/g6' is referencing an undefined model or subcircuit, `sg13g2_inv_1'. Either include the file containing the definition of `sg13g2_inv_1', or define `sg13g2_inv_1' before running the simulation.
    ERROR (SFE-23): "tempus_pathsim/path_1_setup.sp" 350: The instance `Xcby_2__1_/mem_left_ipin_2/DFFR_1_/g6' is referencing an undefined model or subcircuit, `sg13g2_inv_1'. Either include the file containing the definition of `sg13g2_inv_1', or define `sg13g2_inv_1' before running the simulation.
    ERROR (SFE-23): "tempus_pathsim/path_1_setup.sp" 353: The instance `Xcby_2__1_/mem_left_ipin_2/DFFR_0_/g6' is referencing an undefined model or subcircuit, `sg13g2_inv_1'. Either include the file containing the definition of `sg13g2_inv_1', or define `sg13g2_inv_1' before running the simulation.
    ERROR (SFE-23): "tempus_pathsim/path_1_setup.sp" 356: The instance `Xcby_2__1_/mem_left_ipin_1/DFFR_2_/g6' is referencing an undefined model or subcircuit, `sg13g2_inv_1'. Either include the file containing the definition of `sg13g2_inv_1', or define `sg13g2_inv_1' before running the simulation.
    ERROR (SFE-23): "tempus_pathsim/path_1_setup.sp" 359: The instance `Xcby_2__1_/mem_left_ipin_1/DFFR_1_/g6' is referencing an undefined model or subcircuit, `sg13g2_inv_1'. Either include the file containing the definition of `sg13g2_inv_1', or define `sg13g2_inv_1' before running the simulation.
    ERROR (SFE-23): "tempus_pathsim/path_1_setup.sp" 362: The instance `Xcby_2__1_/mem_left_ipin_1/DFFR_0_/g6' is referencing an undefined model or subcircuit, `sg13g2_inv_1'. Either include the file containing the definition of `sg13g2_inv_1', or define `sg13g2_inv_1' before running the simulation.
    ERROR (SFE-23): "tempus_pathsim/path_1_setup.sp" 365: The instance `Xcby_2__1_/mem_left_ipin_0/DFFR_2_/g6' is referencing an undefined model or subcircuit, `sg13g2_inv_1'. Either include the file containing the definition of `sg13g2_inv_1', or define `sg13g2_inv_1' before running the simulation.
    ERROR (SFE-23): "tempus_pathsim/path_1_setup.sp" 368: The instance `Xcby_2__1_/mem_left_ipin_0/DFFR_1_/g6' is referencing an undefined model or subcircuit, `sg13g2_inv_1'. Either include the file containing the definition of `sg13g2_inv_1', or define `sg13g2_inv_1' before running the simulation.
    ERROR (SFE-23): "tempus_pathsim/path_1_setup.sp" 371: The instance `Xcby_2__1_/mem_left_ipin_0/DFFR_0_/g6' is referencing an undefined model or subcircuit, `sg13g2_inv_1'. Either include the file containing the definition of `sg13g2_inv_1', or define `sg13g2_inv_1' before running the simulation.
    ERROR (SFE-23): "tempus_pathsim/path_1_setup.sp" 374: The instance `Xcby_1__2_/mem_right_ipin_9/DFFR_1_/g6' is referencing an undefined model or subcircuit, `sg13g2_inv_1'. Either include the file containing the definition of `sg13g2_inv_1', or define `sg13g2_inv_1' before running the simulation.
    ERROR (SFE-23): "tempus_pathsim/path_1_setup.sp" 377: The instance `Xcby_1__2_/mem_right_ipin_9/DFFR_0_/g6' is referencing an undefined model or subcircuit, `sg13g2_inv_1'. Either include the file containing the definition of `sg13g2_inv_1', or define `sg13g2_inv_1' before running the simulation.
    ERROR (SFE-23): "tempus_pathsim/path_1_setup.sp" 380: The instance `Xcby_1__2_/mem_right_ipin_8/DFFR_1_/g6' is referencing an undefined model or subcircuit, `sg13g2_inv_1'. Either include the file containing the definition of `sg13g2_inv_1', or define `sg13g2_inv_1' before running the simulation.
    ERROR (SFE-23): "tempus_pathsim/path_1_setup.sp" 383: The instance `Xcby_1__2_/mem_right_ipin_8/DFFR_0_/g6' is referencing an undefined model or subcircuit, `sg13g2_inv_1'. Either include the file containing the definition of `sg13g2_inv_1', or define `sg13g2_inv_1' before running the simulation.
    ERROR (SFE-23): "tempus_pathsim/path_1_setup.sp" 386: The instance `Xcby_1__2_/mem_right_ipin_7/DFFR_1_/g6' is referencing an undefined model or subcircuit, `sg13g2_inv_1'. Either include the file containing the definition of `sg13g2_inv_1', or define `sg13g2_inv_1' before running the simulation.
    ERROR (SFE-23): "tempus_pathsim/path_1_setup.sp" 389: The instance `Xcby_1__2_/mem_right_ipin_7/DFFR_0_/g6' is referencing an undefined model or subcircuit, `sg13g2_inv_1'. Either include the file containing the definition of `sg13g2_inv_1', or define `sg13g2_inv_1' before running the simulation.
    ERROR (SFE-23): "tempus_pathsim/path_1_setup.sp" 392: The instance `Xcby_1__2_/mem_right_ipin_6/DFFR_1_/g6' is referencing an undefined model or subcircuit, `sg13g2_inv_1'. Either include the file containing the definition of `sg13g2_inv_1', or define `sg13g2_inv_1' before running the simulation.
    ERROR (SFE-23): "tempus_pathsim/path_1_setup.sp" 395: The instance `Xcby_1__2_/mem_right_ipin_6/DFFR_0_/g6' is referencing an undefined model or subcircuit, `sg13g2_inv_1'. Either include the file containing the definition of `sg13g2_inv_1', or define `sg13g2_inv_1' before running the simulation.
    ERROR (SFE-23): "tempus_pathsim/path_1_setup.sp" 398: The instance `Xcby_1__2_/mem_right_ipin_5/DFFR_1_/g6' is referencing an undefined model or subcircuit, `sg13g2_inv_1'. Either include the file containing the definition of `sg13g2_inv_1', or define `sg13g2_inv_1' before running the simulation.
    ERROR (SFE-23): "tempus_pathsim/path_1_setup.sp" 401: The instance `Xcby_1__2_/mem_right_ipin_5/DFFR_0_/g6' is referencing an undefined model or subcircuit, `sg13g2_inv_1'. Either include the file containing the definition of `sg13g2_inv_1', or define `sg13g2_inv_1' before running the simulation.
    ERROR (SFE-23): "tempus_pathsim/path_1_setup.sp" 404: The instance `Xcby_1__2_/mem_left_ipin_9/DFFR_1_/g6' is referencing an undefined model or subcircuit, `sg13g2_inv_1'. Either include the file containing the definition of `sg13g2_inv_1', or define `sg13g2_inv_1' before running the simulation.
    ERROR (SFE-23): "tempus_pathsim/path_1_setup.sp" 407: The instance `Xcby_1__2_/mem_left_ipin_9/DFFR_0_/g6' is referencing an undefined model or subcircuit, `sg13g2_inv_1'. Either include the file containing the definition of `sg13g2_inv_1', or define `sg13g2_inv_1' before running the simulation.
    ERROR (SFE-23): "tempus_pathsim/path_1_setup.sp" 410: The instance `Xcby_1__2_/mem_left_ipin_8/DFFR_1_/g6' is referencing an undefined model or subcircuit, `sg13g2_inv_1'. Either include the file containing the definition of `sg13g2_inv_1', or define `sg13g2_inv_1' before running the simulation.
    ERROR (SFE-23): "tempus_pathsim/path_1_setup.sp" 413: The instance `Xcby_1__2_/mem_left_ipin_8/DFFR_0_/g6' is referencing an undefined model or subcircuit, `sg13g2_inv_1'. Either include the file containing the definition of `sg13g2_inv_1', or define `sg13g2_inv_1' before running the simulation.
    ERROR (SFE-23): "tempus_pathsim/path_1_setup.sp" 416: The instance `Xcby_1__2_/mem_left_ipin_7/DFFR_1_/g6' is referencing an undefined model or subcircuit, `sg13g2_inv_1'. Either include the file containing the definition of `sg13g2_inv_1', or define `sg13g2_inv_1' before running the simulation.
    ERROR (SFE-23): "tempus_pathsim/path_1_setup.sp" 419: The instance `Xcby_1__2_/mem_left_ipin_7/DFFR_0_/g6' is referencing an undefined model or subcircuit, `sg13g2_inv_1'. Either include the file containing the definition of `sg13g2_inv_1', or define `sg13g2_inv_1' before running the simulation.
    ERROR (SFE-23): "tempus_pathsim/path_1_setup.sp" 422: The instance `Xcby_1__2_/mem_left_ipin_6/DFFR_1_/g6' is referencing an undefined model or subcircuit, `sg13g2_inv_1'. Either include the file containing the definition of `sg13g2_inv_1', or define `sg13g2_inv_1' before running the simulation.
    ERROR (SFE-23): "tempus_pathsim/path_1_setup.sp" 425: The instance `Xcby_1__2_/mem_left_ipin_6/DFFR_0_/g6' is referencing an undefined model or subcircuit, `sg13g2_inv_1'. Either include the file containing the definition of `sg13g2_inv_1', or define `sg13g2_inv_1' before running the simulation.
    ERROR (SFE-23): "tempus_pathsim/path_1_setup.sp" 428: The instance `Xcby_1__2_/mem_left_ipin_5/DFFR_1_/g6' is referencing an undefined model or subcircuit, `sg13g2_inv_1'. Either include the file containing the definition of `sg13g2_inv_1', or define `sg13g2_inv_1' before running the simulation.
    ERROR (SFE-23): "tempus_pathsim/path_1_setup.sp" 431: The instance `Xcby_1__2_/mem_left_ipin_5/DFFR_0_/g6' is referencing an undefined model or subcircuit, `sg13g2_inv_1'. Either include the file containing the definition of `sg13g2_inv_1', or define `sg13g2_inv_1' before running the simulation.
    ERROR (SFE-23): "tempus_pathsim/path_1_setup.sp" 434: The instance `Xcby_1__2_/mem_right_ipin_4/DFFR_2_/g6' is referencing an undefined model or subcircuit, `sg13g2_inv_1'. Either include the file containing the definition of `sg13g2_inv_1', or define `sg13g2_inv_1' before running the simulation.
    ERROR (SFE-23): "tempus_pathsim/path_1_setup.sp" 437: The instance `Xcby_1__2_/mem_right_ipin_4/DFFR_1_/g6' is referencing an undefined model or subcircuit, `sg13g2_inv_1'. Either include the file containing the definition of `sg13g2_inv_1', or define `sg13g2_inv_1' before running the simulation.
    ERROR (SFE-23): "tempus_pathsim/path_1_setup.sp" 440: The instance `Xcby_1__2_/mem_right_ipin_4/DFFR_0_/g6' is referencing an undefined model or subcircuit, `sg13g2_inv_1'. Either include the file containing the definition of `sg13g2_inv_1', or define `sg13g2_inv_1' before running the simulation.
    ERROR (SFE-23): "tempus_pathsim/path_1_setup.sp" 443: The instance `Xcby_1__2_/mem_right_ipin_3/DFFR_2_/g6' is referencing an undefined model or subcircuit, `sg13g2_inv_1'. Either include the file containing the definition of `sg13g2_inv_1', or define `sg13g2_inv_1' before running the simulation.
    ERROR (SFE-23): "tempus_pathsim/path_1_setup.sp" 446: The instance `Xcby_1__2_/mem_right_ipin_3/DFFR_1_/g6' is referencing an undefined model or subcircuit, `sg13g2_inv_1'. Either include the file containing the definition of `sg13g2_inv_1', or define `sg13g2_inv_1' before running the simulation.
    ERROR (SFE-23): "tempus_pathsim/path_1_setup.sp" 449: The instance `Xcby_1__2_/mem_right_ipin_3/DFFR_0_/g6' is referencing an undefined model or subcircuit, `sg13g2_inv_1'. Either include the file containing the definition of `sg13g2_inv_1', or define `sg13g2_inv_1' before running the simulation.
    ERROR (SFE-23): "tempus_pathsim/path_1_setup.sp" 452: The instance `Xcby_1__2_/mem_right_ipin_2/DFFR_2_/g6' is referencing an undefined model or subcircuit, `sg13g2_inv_1'. Either include the file containing the definition of `sg13g2_inv_1', or define `sg13g2_inv_1' before running the simulation.
    ERROR (SFE-23): "tempus_pathsim/path_1_setup.sp" 455: The instance `Xcby_1__2_/mem_right_ipin_2/DFFR_1_/g6' is referencing an undefined model or subcircuit, `sg13g2_inv_1'. Either include the file containing the definition of `sg13g2_inv_1', or define `sg13g2_inv_1' before running the simulation.
    ERROR (SFE-23): "tempus_pathsim/path_1_setup.sp" 458: The instance `Xcby_1__2_/mem_right_ipin_2/DFFR_0_/g6' is referencing an undefined model or subcircuit, `sg13g2_inv_1'. Either include the file containing the definition of `sg13g2_inv_1', or define `sg13g2_inv_1' before running the simulation.
    ERROR (SFE-23): "tempus_pathsim/path_1_setup.sp" 461: The instance `Xcby_1__2_/mem_right_ipin_1/DFFR_2_/g6' is referencing an undefined model or subcircuit, `sg13g2_inv_1'. Either include the file containing the definition of `sg13g2_inv_1', or define `sg13g2_inv_1' before running the simulation.
    ERROR (SFE-23): "tempus_pathsim/path_1_setup.sp" 464: The instance `Xcby_1__2_/mem_right_ipin_1/DFFR_1_/g6' is referencing an undefined model or subcircuit, `sg13g2_inv_1'. Either include the file containing the definition of `sg13g2_inv_1', or define `sg13g2_inv_1' before running the simulation.
    ERROR (SFE-23): "tempus_pathsim/path_1_setup.sp" 467: The instance `Xcby_1__2_/mem_right_ipin_1/DFFR_0_/g6' is referencing an undefined model or subcircuit, `sg13g2_inv_1'. Either include the file containing the definition of `sg13g2_inv_1', or define `sg13g2_inv_1' before running the simulation.
    ERROR (SFE-23): "tempus_pathsim/path_1_setup.sp" 470: The instance `Xcby_1__2_/mem_right_ipin_0/DFFR_2_/g6' is referencing an undefined model or subcircuit, `sg13g2_inv_1'. Either include the file containing the definition of `sg13g2_inv_1', or define `sg13g2_inv_1' before running the simulation.
    ERROR (SFE-23): "tempus_pathsim/path_1_setup.sp" 473: The instance `Xcby_1__2_/mem_right_ipin_0/DFFR_1_/g6' is referencing an undefined model or subcircuit, `sg13g2_inv_1'. Either include the file containing the definition of `sg13g2_inv_1', or define `sg13g2_inv_1' before running the simulation.
    ERROR (SFE-23): "tempus_pathsim/path_1_setup.sp" 476: The instance `Xcby_1__2_/mem_right_ipin_0/DFFR_0_/g6' is referencing an undefined model or subcircuit, `sg13g2_inv_1'. Either include the file containing the definition of `sg13g2_inv_1', or define `sg13g2_inv_1' before running the simulation.
    ERROR (SFE-23): "tempus_pathsim/path_1_setup.sp" 479: The instance `Xcby_1__2_/mem_left_ipin_4/DFFR_2_/g6' is referencing an undefined model or subcircuit, `sg13g2_inv_1'. Either include the file containing the definition of `sg13g2_inv_1', or define `sg13g2_inv_1' before running the simulation.
    ERROR (SFE-23): "tempus_pathsim/path_1_setup.sp" 482: The instance `Xcby_1__2_/mem_left_ipin_4/DFFR_1_/g6' is referencing an undefined model or subcircuit, `sg13g2_inv_1'. Either include the file containing the definition of `sg13g2_inv_1', or define `sg13g2_inv_1' before running the simulation.
    ERROR (SFE-23): "tempus_pathsim/path_1_setup.sp" 485: The instance `Xcby_1__2_/mem_left_ipin_4/DFFR_0_/g6' is referencing an undefined model or subcircuit, `sg13g2_inv_1'. Either include the file containing the definition of `sg13g2_inv_1', or define `sg13g2_inv_1' before running the simulation.
    ERROR (SFE-23): "tempus_pathsim/path_1_setup.sp" 488: The instance `Xcby_1__2_/mem_left_ipin_3/DFFR_2_/g6' is referencing an undefined model or subcircuit, `sg13g2_inv_1'. Either include the file containing the definition of `sg13g2_inv_1', or define `sg13g2_inv_1' before running the simulation.
    ERROR (SFE-23): "tempus_pathsim/path_1_setup.sp" 491: The instance `Xcby_1__2_/mem_left_ipin_3/DFFR_1_/g6' is referencing an undefined model or subcircuit, `sg13g2_inv_1'. Either include the file containing the definition of `sg13g2_inv_1', or define `sg13g2_inv_1' before running the simulation.
    ERROR (SFE-23): "tempus_pathsim/path_1_setup.sp" 494: The instance `Xcby_1__2_/mem_left_ipin_3/DFFR_0_/g6' is referencing an undefined model or subcircuit, `sg13g2_inv_1'. Either include the file containing the definition of `sg13g2_inv_1', or define `sg13g2_inv_1' before running the simulation.
    ERROR (SFE-23): "tempus_pathsim/path_1_setup.sp" 497: The instance `Xcby_1__2_/mem_left_ipin_2/DFFR_2_/g6' is referencing an undefined model or subcircuit, `sg13g2_inv_1'. Either include the file containing the definition of `sg13g2_inv_1', or define `sg13g2_inv_1' before running the simulation.
    ERROR (SFE-23): "tempus_pathsim/path_1_setup.sp" 500: The instance `Xcby_1__2_/mem_left_ipin_2/DFFR_1_/g6' is referencing an undefined model or subcircuit, `sg13g2_inv_1'. Either include the file containing the definition of `sg13g2_inv_1', or define `sg13g2_inv_1' before running the simulation.
    ERROR (SFE-23): "tempus_pathsim/path_1_setup.sp" 503: The instance `Xcby_1__2_/mem_left_ipin_2/DFFR_0_/g6' is referencing an undefined model or subcircuit, `sg13g2_inv_1'. Either include the file containing the definition of `sg13g2_inv_1', or define `sg13g2_inv_1' before running the simulation.
    ERROR (SFE-23): "tempus_pathsim/path_1_setup.sp" 506: The instance `Xcby_1__2_/mem_left_ipin_1/DFFR_2_/g6' is referencing an undefined model or subcircuit, `sg13g2_inv_1'. Either include the file containing the definition of `sg13g2_inv_1', or define `sg13g2_inv_1' before running the simulation.
    ERROR (SFE-23): "tempus_pathsim/path_1_setup.sp" 509: The instance `Xcby_1__2_/mem_left_ipin_1/DFFR_1_/g6' is referencing an undefined model or subcircuit, `sg13g2_inv_1'. Either include the file containing the definition of `sg13g2_inv_1', or define `sg13g2_inv_1' before running the simulation.
    ERROR (SFE-23): "tempus_pathsim/path_1_setup.sp" 512: The instance `Xcby_1__2_/mem_left_ipin_1/DFFR_0_/g6' is referencing an undefined model or subcircuit, `sg13g2_inv_1'. Either include the file containing the definition of `sg13g2_inv_1', or define `sg13g2_inv_1' before running the simulation.
    ERROR (SFE-23): "tempus_pathsim/path_1_setup.sp" 515: The instance `Xcby_1__2_/mem_left_ipin_0/DFFR_2_/g6' is referencing an undefined model or subcircuit, `sg13g2_inv_1'. Either include the file containing the definition of `sg13g2_inv_1', or define `sg13g2_inv_1' before running the simulation.
    ERROR (SFE-23): "tempus_pathsim/path_1_setup.sp" 518: The instance `Xcby_1__2_/mem_left_ipin_0/DFFR_1_/g6' is referencing an undefined model or subcircuit, `sg13g2_inv_1'. Either include the file containing the definition of `sg13g2_inv_1', or define `sg13g2_inv_1' before running the simulation.
    ERROR (SFE-23): "tempus_pathsim/path_1_setup.sp" 521: The instance `Xcby_1__2_/mem_left_ipin_0/DFFR_0_/g6' is referencing an undefined model or subcircuit, `sg13g2_inv_1'. Either include the file containing the definition of `sg13g2_inv_1', or define `sg13g2_inv_1' before running the simulation.
    ERROR (SFE-23): "tempus_pathsim/path_1_setup.sp" 524: The instance `Xcby_1__1_/mem_right_ipin_9/DFFR_1_/g6' is referencing an undefined model or subcircuit, `sg13g2_inv_1'. Either include the file containing the definition of `sg13g2_inv_1', or define `sg13g2_inv_1' before running the simulation.
    ERROR (SFE-23): "tempus_pathsim/path_1_setup.sp" 527: The instance `Xcby_1__1_/mem_right_ipin_9/DFFR_0_/g6' is referencing an undefined model or subcircuit, `sg13g2_inv_1'. Either include the file containing the definition of `sg13g2_inv_1', or define `sg13g2_inv_1' before running the simulation.
    ERROR (SFE-23): "tempus_pathsim/path_1_setup.sp" 530: The instance `Xcby_1__1_/mem_right_ipin_8/DFFR_1_/g6' is referencing an undefined model or subcircuit, `sg13g2_inv_1'. Either include the file containing the definition of `sg13g2_inv_1', or define `sg13g2_inv_1' before running the simulation.
    ERROR (SFE-23): "tempus_pathsim/path_1_setup.sp" 533: The instance `Xcby_1__1_/mem_right_ipin_8/DFFR_0_/g6' is referencing an undefined model or subcircuit, `sg13g2_inv_1'. Either include the file containing the definition of `sg13g2_inv_1', or define `sg13g2_inv_1' before running the simulation.
    ERROR (SFE-23): "tempus_pathsim/path_1_setup.sp" 536: The instance `Xcby_1__1_/mem_right_ipin_7/DFFR_1_/g6' is referencing an undefined model or subcircuit, `sg13g2_inv_1'. Either include the file containing the definition of `sg13g2_inv_1', or define `sg13g2_inv_1' before running the simulation.
    ERROR (SFE-23): "tempus_pathsim/path_1_setup.sp" 539: The instance `Xcby_1__1_/mem_right_ipin_7/DFFR_0_/g6' is referencing an undefined model or subcircuit, `sg13g2_inv_1'. Either include the file containing the definition of `sg13g2_inv_1', or define `sg13g2_inv_1' before running the simulation.
    ERROR (SFE-23): "tempus_pathsim/path_1_setup.sp" 542: The instance `Xcby_1__1_/mem_right_ipin_6/DFFR_1_/g6' is referencing an undefined model or subcircuit, `sg13g2_inv_1'. Either include the file containing the definition of `sg13g2_inv_1', or define `sg13g2_inv_1' before running the simulation.
    ERROR (SFE-23): "tempus_pathsim/path_1_setup.sp" 545: The instance `Xcby_1__1_/mem_right_ipin_6/DFFR_0_/g6' is referencing an undefined model or subcircuit, `sg13g2_inv_1'. Either include the file containing the definition of `sg13g2_inv_1', or define `sg13g2_inv_1' before running the simulation.
    ERROR (SFE-23): "tempus_pathsim/path_1_setup.sp" 548: The instance `Xcby_1__1_/mem_right_ipin_5/DFFR_1_/g6' is referencing an undefined model or subcircuit, `sg13g2_inv_1'. Either include the file containing the definition of `sg13g2_inv_1', or define `sg13g2_inv_1' before running the simulation.
    ERROR (SFE-23): "tempus_pathsim/path_1_setup.sp" 551: The instance `Xcby_1__1_/mem_right_ipin_5/DFFR_0_/g6' is referencing an undefined model or subcircuit, `sg13g2_inv_1'. Either include the file containing the definition of `sg13g2_inv_1', or define `sg13g2_inv_1' before running the simulation.
    ERROR (SFE-23): "tempus_pathsim/path_1_setup.sp" 554: The instance `Xcby_1__1_/mem_left_ipin_9/DFFR_1_/g6' is referencing an undefined model or subcircuit, `sg13g2_inv_1'. Either include the file containing the definition of `sg13g2_inv_1', or define `sg13g2_inv_1' before running the simulation.
    ERROR (SFE-23): "tempus_pathsim/path_1_setup.sp" 557: The instance `Xcby_1__1_/mem_left_ipin_9/DFFR_0_/g6' is referencing an undefined model or subcircuit, `sg13g2_inv_1'. Either include the file containing the definition of `sg13g2_inv_1', or define `sg13g2_inv_1' before running the simulation.
    ERROR (SFE-23): "tempus_pathsim/path_1_setup.sp" 560: The instance `Xcby_1__1_/mem_left_ipin_8/DFFR_1_/g6' is referencing an undefined model or subcircuit, `sg13g2_inv_1'. Either include the file containing the definition of `sg13g2_inv_1', or define `sg13g2_inv_1' before running the simulation.
    ERROR (SFE-23): "tempus_pathsim/path_1_setup.sp" 563: The instance `Xcby_1__1_/mem_left_ipin_8/DFFR_0_/g6' is referencing an undefined model or subcircuit, `sg13g2_inv_1'. Either include the file containing the definition of `sg13g2_inv_1', or define `sg13g2_inv_1' before running the simulation.
    ERROR (SFE-23): "tempus_pathsim/path_1_setup.sp" 566: The instance `Xcby_1__1_/mem_left_ipin_7/DFFR_1_/g6' is referencing an undefined model or subcircuit, `sg13g2_inv_1'. Either include the file containing the definition of `sg13g2_inv_1', or define `sg13g2_inv_1' before running the simulation.
    ERROR (SFE-23): "tempus_pathsim/path_1_setup.sp" 569: The instance `Xcby_1__1_/mem_left_ipin_7/DFFR_0_/g6' is referencing an undefined model or subcircuit, `sg13g2_inv_1'. Either include the file containing the definition of `sg13g2_inv_1', or define `sg13g2_inv_1' before running the simulation.
    ERROR (SFE-23): "tempus_pathsim/path_1_setup.sp" 572: The instance `Xcby_1__1_/mem_left_ipin_6/DFFR_1_/g6' is referencing an undefined model or subcircuit, `sg13g2_inv_1'. Either include the file containing the definition of `sg13g2_inv_1', or define `sg13g2_inv_1' before running the simulation.
    ERROR (SFE-23): "tempus_pathsim/path_1_setup.sp" 575: The instance `Xcby_1__1_/mem_left_ipin_6/DFFR_0_/g6' is referencing an undefined model or subcircuit, `sg13g2_inv_1'. Either include the file containing the definition of `sg13g2_inv_1', or define `sg13g2_inv_1' before running the simulation.
    ERROR (SFE-23): "tempus_pathsim/path_1_setup.sp" 578: The instance `Xcby_1__1_/mem_left_ipin_5/DFFR_1_/g6' is referencing an undefined model or subcircuit, `sg13g2_inv_1'. Either include the file containing the definition of `sg13g2_inv_1', or define `sg13g2_inv_1' before running the simulation.
    ERROR (SFE-23): "tempus_pathsim/path_1_setup.sp" 581: The instance `Xcby_1__1_/mem_left_ipin_5/DFFR_0_/g6' is referencing an undefined model or subcircuit, `sg13g2_inv_1'. Either include the file containing the definition of `sg13g2_inv_1', or define `sg13g2_inv_1' before running the simulation.
    ERROR (SFE-23): "tempus_pathsim/path_1_setup.sp" 584: The instance `Xcby_1__1_/mem_right_ipin_4/DFFR_2_/g6' is referencing an undefined model or subcircuit, `sg13g2_inv_1'. Either include the file containing the definition of `sg13g2_inv_1', or define `sg13g2_inv_1' before running the simulation.
    ERROR (SFE-23): "tempus_pathsim/path_1_setup.sp" 587: The instance `Xcby_1__1_/mem_right_ipin_4/DFFR_1_/g6' is referencing an undefined model or subcircuit, `sg13g2_inv_1'. Either include the file containing the definition of `sg13g2_inv_1', or define `sg13g2_inv_1' before running the simulation.
    ERROR (SFE-23): "tempus_pathsim/path_1_setup.sp" 590: The instance `Xcby_1__1_/mem_right_ipin_4/DFFR_0_/g6' is referencing an undefined model or subcircuit, `sg13g2_inv_1'. Either include the file containing the definition of `sg13g2_inv_1', or define `sg13g2_inv_1' before running the simulation.
    ERROR (SFE-23): "tempus_pathsim/path_1_setup.sp" 593: The instance `Xcby_1__1_/mem_right_ipin_3/DFFR_2_/g6' is referencing an undefined model or subcircuit, `sg13g2_inv_1'. Either include the file containing the definition of `sg13g2_inv_1', or define `sg13g2_inv_1' before running the simulation.
    ERROR (SFE-23): "tempus_pathsim/path_1_setup.sp" 596: The instance `Xcby_1__1_/mem_right_ipin_3/DFFR_1_/g6' is referencing an undefined model or subcircuit, `sg13g2_inv_1'. Either include the file containing the definition of `sg13g2_inv_1', or define `sg13g2_inv_1' before running the simulation.
    ERROR (SFE-23): "tempus_pathsim/path_1_setup.sp" 599: The instance `Xcby_1__1_/mem_right_ipin_3/DFFR_0_/g6' is referencing an undefined model or subcircuit, `sg13g2_inv_1'. Either include the file containing the definition of `sg13g2_inv_1', or define `sg13g2_inv_1' before running the simulation.
    ERROR (SFE-23): "tempus_pathsim/path_1_setup.sp" 602: The instance `Xcby_1__1_/mem_right_ipin_2/DFFR_2_/g6' is referencing an undefined model or subcircuit, `sg13g2_inv_1'. Either include the file containing the definition of `sg13g2_inv_1', or define `sg13g2_inv_1' before running the simulation.
    ERROR (SFE-23): "tempus_pathsim/path_1_setup.sp" 605: The instance `Xcby_1__1_/mem_right_ipin_2/DFFR_1_/g6' is referencing an undefined model or subcircuit, `sg13g2_inv_1'. Either include the file containing the definition of `sg13g2_inv_1', or define `sg13g2_inv_1' before running the simulation.
    ERROR (SFE-23): "tempus_pathsim/path_1_setup.sp" 608: The instance `Xcby_1__1_/mem_right_ipin_2/DFFR_0_/g6' is referencing an undefined model or subcircuit, `sg13g2_inv_1'. Either include the file containing the definition of `sg13g2_inv_1', or define `sg13g2_inv_1' before running the simulation.
    ERROR (SFE-23): "tempus_pathsim/path_1_setup.sp" 611: The instance `Xcby_1__1_/mem_right_ipin_1/DFFR_2_/g6' is referencing an undefined model or subcircuit, `sg13g2_inv_1'. Either include the file containing the definition of `sg13g2_inv_1', or define `sg13g2_inv_1' before running the simulation.
    ERROR (SFE-23): "tempus_pathsim/path_1_setup.sp" 614: The instance `Xcby_1__1_/mem_right_ipin_1/DFFR_1_/g6' is referencing an undefined model or subcircuit, `sg13g2_inv_1'. Either include the file containing the definition of `sg13g2_inv_1', or define `sg13g2_inv_1' before running the simulation.
    ERROR (SFE-23): "tempus_pathsim/path_1_setup.sp" 617: The instance `Xcby_1__1_/mem_right_ipin_1/DFFR_0_/g6' is referencing an undefined model or subcircuit, `sg13g2_inv_1'. Either include the file containing the definition of `sg13g2_inv_1', or define `sg13g2_inv_1' before running the simulation.
    ERROR (SFE-23): "tempus_pathsim/path_1_setup.sp" 620: The instance `Xcby_1__1_/mem_right_ipin_0/DFFR_2_/g6' is referencing an undefined model or subcircuit, `sg13g2_inv_1'. Either include the file containing the definition of `sg13g2_inv_1', or define `sg13g2_inv_1' before running the simulation.
    ERROR (SFE-23): "tempus_pathsim/path_1_setup.sp" 623: The instance `Xcby_1__1_/mem_right_ipin_0/DFFR_1_/g6' is referencing an undefined model or subcircuit, `sg13g2_inv_1'. Either include the file containing the definition of `sg13g2_inv_1', or define `sg13g2_inv_1' before running the simulation.
    ERROR (SFE-23): "tempus_pathsim/path_1_setup.sp" 626: The instance `Xcby_1__1_/mem_right_ipin_0/DFFR_0_/g6' is referencing an undefined model or subcircuit, `sg13g2_inv_1'. Either include the file containing the definition of `sg13g2_inv_1', or define `sg13g2_inv_1' before running the simulation.
    ERROR (SFE-23): "tempus_pathsim/path_1_setup.sp" 629: The instance `Xcby_1__1_/mem_left_ipin_4/DFFR_2_/g6' is referencing an undefined model or subcircuit, `sg13g2_inv_1'. Either include the file containing the definition of `sg13g2_inv_1', or define `sg13g2_inv_1' before running the simulation.
    ERROR (SFE-23): "tempus_pathsim/path_1_setup.sp" 632: The instance `Xcby_1__1_/mem_left_ipin_4/DFFR_1_/g6' is referencing an undefined model or subcircuit, `sg13g2_inv_1'. Either include the file containing the definition of `sg13g2_inv_1', or define `sg13g2_inv_1' before running the simulation.
    ERROR (SFE-23): "tempus_pathsim/path_1_setup.sp" 635: The instance `Xcby_1__1_/mem_left_ipin_4/DFFR_0_/g6' is referencing an undefined model or subcircuit, `sg13g2_inv_1'. Either include the file containing the definition of `sg13g2_inv_1', or define `sg13g2_inv_1' before running the simulation.
    ERROR (SFE-23): "tempus_pathsim/path_1_setup.sp" 638: The instance `Xcby_1__1_/mem_left_ipin_3/DFFR_2_/g6' is referencing an undefined model or subcircuit, `sg13g2_inv_1'. Either include the file containing the definition of `sg13g2_inv_1', or define `sg13g2_inv_1' before running the simulation.
    ERROR (SFE-23): "tempus_pathsim/path_1_setup.sp" 641: The instance `Xcby_1__1_/mem_left_ipin_3/DFFR_1_/g6' is referencing an undefined model or subcircuit, `sg13g2_inv_1'. Either include the file containing the definition of `sg13g2_inv_1', or define `sg13g2_inv_1' before running the simulation.
    ERROR (SFE-23): "tempus_pathsim/path_1_setup.sp" 644: The instance `Xcby_1__1_/mem_left_ipin_3/DFFR_0_/g6' is referencing an undefined model or subcircuit, `sg13g2_inv_1'. Either include the file containing the definition of `sg13g2_inv_1', or define `sg13g2_inv_1' before running the simulation.
    ERROR (SFE-23): "tempus_pathsim/path_1_setup.sp" 647: The instance `Xcby_1__1_/mem_left_ipin_2/DFFR_2_/g6' is referencing an undefined model or subcircuit, `sg13g2_inv_1'. Either include the file containing the definition of `sg13g2_inv_1', or define `sg13g2_inv_1' before running the simulation.
    ERROR (SFE-23): "tempus_pathsim/path_1_setup.sp" 650: The instance `Xcby_1__1_/mem_left_ipin_2/DFFR_1_/g6' is referencing an undefined model or subcircuit, `sg13g2_inv_1'. Either include the file containing the definition of `sg13g2_inv_1', or define `sg13g2_inv_1' before running the simulation.
    ERROR (SFE-23): "tempus_pathsim/path_1_setup.sp" 653: The instance `Xcby_1__1_/mem_left_ipin_2/DFFR_0_/g6' is referencing an undefined model or subcircuit, `sg13g2_inv_1'. Either include the file containing the definition of `sg13g2_inv_1', or define `sg13g2_inv_1' before running the simulation.
    ERROR (SFE-23): "tempus_pathsim/path_1_setup.sp" 656: The instance `Xcby_1__1_/mem_left_ipin_1/DFFR_2_/g6' is referencing an undefined model or subcircuit, `sg13g2_inv_1'. Either include the file containing the definition of `sg13g2_inv_1', or define `sg13g2_inv_1' before running the simulation.
    ERROR (SFE-23): "tempus_pathsim/path_1_setup.sp" 659: The instance `Xcby_1__1_/mem_left_ipin_1/DFFR_1_/g6' is referencing an undefined model or subcircuit, `sg13g2_inv_1'. Either include the file containing the definition of `sg13g2_inv_1', or define `sg13g2_inv_1' before running the simulation.
    ERROR (SFE-23): "tempus_pathsim/path_1_setup.sp" 662: The instance `Xcby_1__1_/mem_left_ipin_1/DFFR_0_/g6' is referencing an undefined model or subcircuit, `sg13g2_inv_1'. Either include the file containing the definition of `sg13g2_inv_1', or define `sg13g2_inv_1' before running the simulation.
    ERROR (SFE-23): "tempus_pathsim/path_1_setup.sp" 665: The instance `Xcby_1__1_/mem_left_ipin_0/DFFR_2_/g6' is referencing an undefined model or subcircuit, `sg13g2_inv_1'. Either include the file containing the definition of `sg13g2_inv_1', or define `sg13g2_inv_1' before running the simulation.
    ERROR (SFE-23): "tempus_pathsim/path_1_setup.sp" 668: The instance `Xcby_1__1_/mem_left_ipin_0/DFFR_1_/g6' is referencing an undefined model or subcircuit, `sg13g2_inv_1'. Either include the file containing the definition of `sg13g2_inv_1', or define `sg13g2_inv_1' before running the simulation.
    ERROR (SFE-23): "tempus_pathsim/path_1_setup.sp" 671: The instance `Xcby_1__1_/mem_left_ipin_0/DFFR_0_/g6' is referencing an undefined model or subcircuit, `sg13g2_inv_1'. Either include the file containing the definition of `sg13g2_inv_1', or define `sg13g2_inv_1' before running the simulation.
    ERROR (SFE-23): "tempus_pathsim/path_1_setup.sp" 674: The instance `Xcby_0__2_/mem_left_ipin_9/DFFR_1_/g6' is referencing an undefined model or subcircuit, `sg13g2_inv_1'. Either include the file containing the definition of `sg13g2_inv_1', or define `sg13g2_inv_1' before running the simulation.
    ERROR (SFE-23): "tempus_pathsim/path_1_setup.sp" 677: The instance `Xcby_0__2_/mem_left_ipin_9/DFFR_0_/g6' is referencing an undefined model or subcircuit, `sg13g2_inv_1'. Either include the file containing the definition of `sg13g2_inv_1', or define `sg13g2_inv_1' before running the simulation.
    ERROR (SFE-23): "tempus_pathsim/path_1_setup.sp" 680: The instance `Xcby_0__2_/mem_left_ipin_8/DFFR_1_/g6' is referencing an undefined model or subcircuit, `sg13g2_inv_1'. Either include the file containing the definition of `sg13g2_inv_1', or define `sg13g2_inv_1' before running the simulation.
    ERROR (SFE-23): "tempus_pathsim/path_1_setup.sp" 683: The instance `Xcby_0__2_/mem_left_ipin_8/DFFR_0_/g6' is referencing an undefined model or subcircuit, `sg13g2_inv_1'. Either include the file containing the definition of `sg13g2_inv_1', or define `sg13g2_inv_1' before running the simulation.
    ERROR (SFE-23): "tempus_pathsim/path_1_setup.sp" 686: The instance `Xcby_0__2_/mem_left_ipin_7/DFFR_1_/g6' is referencing an undefined model or subcircuit, `sg13g2_inv_1'. Either include the file containing the definition of `sg13g2_inv_1', or define `sg13g2_inv_1' before running the simulation.
    ERROR (SFE-23): "tempus_pathsim/path_1_setup.sp" 689: The instance `Xcby_0__2_/mem_left_ipin_7/DFFR_0_/g6' is referencing an undefined model or subcircuit, `sg13g2_inv_1'. Either include the file containing the definition of `sg13g2_inv_1', or define `sg13g2_inv_1' before running the simulation.
    ERROR (SFE-23): "tempus_pathsim/path_1_setup.sp" 692: The instance `Xcby_0__2_/mem_left_ipin_6/DFFR_1_/g6' is referencing an undefined model or subcircuit, `sg13g2_inv_1'. Either include the file containing the definition of `sg13g2_inv_1', or define `sg13g2_inv_1' before running the simulation.
    ERROR (SFE-23): "tempus_pathsim/path_1_setup.sp" 695: The instance `Xcby_0__2_/mem_left_ipin_6/DFFR_0_/g6' is referencing an undefined model or subcircuit, `sg13g2_inv_1'. Either include the file containing the definition of `sg13g2_inv_1', or define `sg13g2_inv_1' before running the simulation.
    ERROR (SFE-23): "tempus_pathsim/path_1_setup.sp" 698: The instance `Xcby_0__2_/mem_left_ipin_5/DFFR_1_/g6' is referencing an undefined model or subcircuit, `sg13g2_inv_1'. Either include the file containing the definition of `sg13g2_inv_1', or define `sg13g2_inv_1' before running the simulation.
    ERROR (SFE-23): "tempus_pathsim/path_1_setup.sp" 701: The instance `Xcby_0__2_/mem_left_ipin_5/DFFR_0_/g6' is referencing an undefined model or subcircuit, `sg13g2_inv_1'. Either include the file containing the definition of `sg13g2_inv_1', or define `sg13g2_inv_1' before running the simulation.
    ERROR (SFE-23): "tempus_pathsim/path_1_setup.sp" 704: The instance `Xcby_0__2_/mem_right_ipin_7/DFFR_2_/g6' is referencing an undefined model or subcircuit, `sg13g2_inv_1'. Either include the file containing the definition of `sg13g2_inv_1', or define `sg13g2_inv_1' before running the simulation.
    ERROR (SFE-23): "tempus_pathsim/path_1_setup.sp" 707: The instance `Xcby_0__2_/mem_right_ipin_7/DFFR_1_/g6' is referencing an undefined model or subcircuit, `sg13g2_inv_1'. Either include the file containing the definition of `sg13g2_inv_1', or define `sg13g2_inv_1' before running the simulation.
    ERROR (SFE-23): "tempus_pathsim/path_1_setup.sp" 710: The instance `Xcby_0__2_/mem_right_ipin_7/DFFR_0_/g6' is referencing an undefined model or subcircuit, `sg13g2_inv_1'. Either include the file containing the definition of `sg13g2_inv_1', or define `sg13g2_inv_1' before running the simulation.
    ERROR (SFE-23): "tempus_pathsim/path_1_setup.sp" 713: The instance `Xcby_0__2_/mem_right_ipin_6/DFFR_2_/g6' is referencing an undefined model or subcircuit, `sg13g2_inv_1'. Either include the file containing the definition of `sg13g2_inv_1', or define `sg13g2_inv_1' before running the simulation.
    ERROR (SFE-23): "tempus_pathsim/path_1_setup.sp" 716: The instance `Xcby_0__2_/mem_right_ipin_6/DFFR_1_/g6' is referencing an undefined model or subcircuit, `sg13g2_inv_1'. Either include the file containing the definition of `sg13g2_inv_1', or define `sg13g2_inv_1' before running the simulation.
    ERROR (SFE-23): "tempus_pathsim/path_1_setup.sp" 719: The instance `Xcby_0__2_/mem_right_ipin_6/DFFR_0_/g6' is referencing an undefined model or subcircuit, `sg13g2_inv_1'. Either include the file containing the definition of `sg13g2_inv_1', or define `sg13g2_inv_1' before running the simulation.
    ERROR (SFE-23): "tempus_pathsim/path_1_setup.sp" 722: The instance `Xcby_0__2_/mem_right_ipin_5/DFFR_2_/g6' is referencing an undefined model or subcircuit, `sg13g2_inv_1'. Either include the file containing the definition of `sg13g2_inv_1', or define `sg13g2_inv_1' before running the simulation.
    ERROR (SFE-23): "tempus_pathsim/path_1_setup.sp" 725: The instance `Xcby_0__2_/mem_right_ipin_5/DFFR_1_/g6' is referencing an undefined model or subcircuit, `sg13g2_inv_1'. Either include the file containing the definition of `sg13g2_inv_1', or define `sg13g2_inv_1' before running the simulation.
    ERROR (SFE-23): "tempus_pathsim/path_1_setup.sp" 728: The instance `Xcby_0__2_/mem_right_ipin_5/DFFR_0_/g6' is referencing an undefined model or subcircuit, `sg13g2_inv_1'. Either include the file containing the definition of `sg13g2_inv_1', or define `sg13g2_inv_1' before running the simulation.
    ERROR (SFE-23): "tempus_pathsim/path_1_setup.sp" 731: The instance `Xcby_0__2_/mem_right_ipin_4/DFFR_2_/g6' is referencing an undefined model or subcircuit, `sg13g2_inv_1'. Either include the file containing the definition of `sg13g2_inv_1', or define `sg13g2_inv_1' before running the simulation.
    ERROR (SFE-23): "tempus_pathsim/path_1_setup.sp" 734: The instance `Xcby_0__2_/mem_right_ipin_4/DFFR_1_/g6' is referencing an undefined model or subcircuit, `sg13g2_inv_1'. Either include the file containing the definition of `sg13g2_inv_1', or define `sg13g2_inv_1' before running the simulation.
    ERROR (SFE-23): "tempus_pathsim/path_1_setup.sp" 737: The instance `Xcby_0__2_/mem_right_ipin_4/DFFR_0_/g6' is referencing an undefined model or subcircuit, `sg13g2_inv_1'. Either include the file containing the definition of `sg13g2_inv_1', or define `sg13g2_inv_1' before running the simulation.
    ERROR (SFE-23): "tempus_pathsim/path_1_setup.sp" 740: The instance `Xcby_0__2_/mem_right_ipin_3/DFFR_2_/g6' is referencing an undefined model or subcircuit, `sg13g2_inv_1'. Either include the file containing the definition of `sg13g2_inv_1', or define `sg13g2_inv_1' before running the simulation.
    ERROR (SFE-23): "tempus_pathsim/path_1_setup.sp" 743: The instance `Xcby_0__2_/mem_right_ipin_3/DFFR_1_/g6' is referencing an undefined model or subcircuit, `sg13g2_inv_1'. Either include the file containing the definition of `sg13g2_inv_1', or define `sg13g2_inv_1' before running the simulation.
    ERROR (SFE-23): "tempus_pathsim/path_1_setup.sp" 746: The instance `Xcby_0__2_/mem_right_ipin_3/DFFR_0_/g6' is referencing an undefined model or subcircuit, `sg13g2_inv_1'. Either include the file containing the definition of `sg13g2_inv_1', or define `sg13g2_inv_1' before running the simulation.
    ERROR (SFE-23): "tempus_pathsim/path_1_setup.sp" 749: The instance `Xcby_0__2_/mem_right_ipin_2/DFFR_2_/g6' is referencing an undefined model or subcircuit, `sg13g2_inv_1'. Either include the file containing the definition of `sg13g2_inv_1', or define `sg13g2_inv_1' before running the simulation.
    ERROR (SFE-23): "tempus_pathsim/path_1_setup.sp" 752: The instance `Xcby_0__2_/mem_right_ipin_2/DFFR_1_/g6' is referencing an undefined model or subcircuit, `sg13g2_inv_1'. Either include the file containing the definition of `sg13g2_inv_1', or define `sg13g2_inv_1' before running the simulation.
    ERROR (SFE-23): "tempus_pathsim/path_1_setup.sp" 755: The instance `Xcby_0__2_/mem_right_ipin_2/DFFR_0_/g6' is referencing an undefined model or subcircuit, `sg13g2_inv_1'. Either include the file containing the definition of `sg13g2_inv_1', or define `sg13g2_inv_1' before running the simulation.
    ERROR (SFE-23): "tempus_pathsim/path_1_setup.sp" 758: The instance `Xcby_0__2_/mem_right_ipin_1/DFFR_2_/g6' is referencing an undefined model or subcircuit, `sg13g2_inv_1'. Either include the file containing the definition of `sg13g2_inv_1', or define `sg13g2_inv_1' before running the simulation.
    ERROR (SFE-23): "tempus_pathsim/path_1_setup.sp" 761: The instance `Xcby_0__2_/mem_right_ipin_1/DFFR_1_/g6' is referencing an undefined model or subcircuit, `sg13g2_inv_1'. Either include the file containing the definition of `sg13g2_inv_1', or define `sg13g2_inv_1' before running the simulation.
    ERROR (SFE-23): "tempus_pathsim/path_1_setup.sp" 764: The instance `Xcby_0__2_/mem_right_ipin_1/DFFR_0_/g6' is referencing an undefined model or subcircuit, `sg13g2_inv_1'. Either include the file containing the definition of `sg13g2_inv_1', or define `sg13g2_inv_1' before running the simulation.
    ERROR (SFE-23): "tempus_pathsim/path_1_setup.sp" 767: The instance `Xcby_0__2_/mem_right_ipin_0/DFFR_2_/g6' is referencing an undefined model or subcircuit, `sg13g2_inv_1'. Either include the file containing the definition of `sg13g2_inv_1', or define `sg13g2_inv_1' before running the simulation.
    ERROR (SFE-23): "tempus_pathsim/path_1_setup.sp" 770: The instance `Xcby_0__2_/mem_right_ipin_0/DFFR_1_/g6' is referencing an undefined model or subcircuit, `sg13g2_inv_1'. Either include the file containing the definition of `sg13g2_inv_1', or define `sg13g2_inv_1' before running the simulation.
    ERROR (SFE-23): "tempus_pathsim/path_1_setup.sp" 773: The instance `Xcby_0__2_/mem_right_ipin_0/DFFR_0_/g6' is referencing an undefined model or subcircuit, `sg13g2_inv_1'. Either include the file containing the definition of `sg13g2_inv_1', or define `sg13g2_inv_1' before running the simulation.
    ERROR (SFE-23): "tempus_pathsim/path_1_setup.sp" 776: The instance `Xcby_0__2_/mem_left_ipin_4/DFFR_2_/g6' is referencing an undefined model or subcircuit, `sg13g2_inv_1'. Either include the file containing the definition of `sg13g2_inv_1', or define `sg13g2_inv_1' before running the simulation.
    ERROR (SFE-23): "tempus_pathsim/path_1_setup.sp" 779: The instance `Xcby_0__2_/mem_left_ipin_4/DFFR_1_/g6' is referencing an undefined model or subcircuit, `sg13g2_inv_1'. Either include the file containing the definition of `sg13g2_inv_1', or define `sg13g2_inv_1' before running the simulation.
    ERROR (SFE-23): "tempus_pathsim/path_1_setup.sp" 782: The instance `Xcby_0__2_/mem_left_ipin_4/DFFR_0_/g6' is referencing an undefined model or subcircuit, `sg13g2_inv_1'. Either include the file containing the definition of `sg13g2_inv_1', or define `sg13g2_inv_1' before running the simulation.
    ERROR (SFE-23): "tempus_pathsim/path_1_setup.sp" 785: The instance `Xcby_0__2_/mem_left_ipin_3/DFFR_2_/g6' is referencing an undefined model or subcircuit, `sg13g2_inv_1'. Either include the file containing the definition of `sg13g2_inv_1', or define `sg13g2_inv_1' before running the simulation.
    ERROR (SFE-23): "tempus_pathsim/path_1_setup.sp" 788: The instance `Xcby_0__2_/mem_left_ipin_3/DFFR_1_/g6' is referencing an undefined model or subcircuit, `sg13g2_inv_1'. Either include the file containing the definition of `sg13g2_inv_1', or define `sg13g2_inv_1' before running the simulation.
    ERROR (SFE-23): "tempus_pathsim/path_1_setup.sp" 791: The instance `Xcby_0__2_/mem_left_ipin_3/DFFR_0_/g6' is referencing an undefined model or subcircuit, `sg13g2_inv_1'. Either include the file containing the definition of `sg13g2_inv_1', or define `sg13g2_inv_1' before running the simulation.
    ERROR (SFE-23): "tempus_pathsim/path_1_setup.sp" 794: The instance `Xcby_0__2_/mem_left_ipin_2/DFFR_2_/g6' is referencing an undefined model or subcircuit, `sg13g2_inv_1'. Either include the file containing the definition of `sg13g2_inv_1', or define `sg13g2_inv_1' before running the simulation.
    ERROR (SFE-23): "tempus_pathsim/path_1_setup.sp" 797: The instance `Xcby_0__2_/mem_left_ipin_2/DFFR_1_/g6' is referencing an undefined model or subcircuit, `sg13g2_inv_1'. Either include the file containing the definition of `sg13g2_inv_1', or define `sg13g2_inv_1' before running the simulation.
    ERROR (SFE-23): "tempus_pathsim/path_1_setup.sp" 800: The instance `Xcby_0__2_/mem_left_ipin_2/DFFR_0_/g6' is referencing an undefined model or subcircuit, `sg13g2_inv_1'. Either include the file containing the definition of `sg13g2_inv_1', or define `sg13g2_inv_1' before running the simulation.
    ERROR (SFE-23): "tempus_pathsim/path_1_setup.sp" 803: The instance `Xcby_0__2_/mem_left_ipin_1/DFFR_2_/g6' is referencing an undefined model or subcircuit, `sg13g2_inv_1'. Either include the file containing the definition of `sg13g2_inv_1', or define `sg13g2_inv_1' before running the simulation.
    ERROR (SFE-23): "tempus_pathsim/path_1_setup.sp" 806: The instance `Xcby_0__2_/mem_left_ipin_1/DFFR_1_/g6' is referencing an undefined model or subcircuit, `sg13g2_inv_1'. Either include the file containing the definition of `sg13g2_inv_1', or define `sg13g2_inv_1' before running the simulation.
    ERROR (SFE-23): "tempus_pathsim/path_1_setup.sp" 809: The instance `Xcby_0__2_/mem_left_ipin_1/DFFR_0_/g6' is referencing an undefined model or subcircuit, `sg13g2_inv_1'. Either include the file containing the definition of `sg13g2_inv_1', or define `sg13g2_inv_1' before running the simulation.
    ERROR (SFE-23): "tempus_pathsim/path_1_setup.sp" 812: The instance `Xcby_0__2_/mem_left_ipin_0/DFFR_2_/g6' is referencing an undefined model or subcircuit, `sg13g2_inv_1'. Either include the file containing the definition of `sg13g2_inv_1', or define `sg13g2_inv_1' before running the simulation.
    ERROR (SFE-23): "tempus_pathsim/path_1_setup.sp" 815: The instance `Xcby_0__2_/mem_left_ipin_0/DFFR_1_/g6' is referencing an undefined model or subcircuit, `sg13g2_inv_1'. Either include the file containing the definition of `sg13g2_inv_1', or define `sg13g2_inv_1' before running the simulation.
    ERROR (SFE-23): "tempus_pathsim/path_1_setup.sp" 818: The instance `Xcby_0__2_/mem_left_ipin_0/DFFR_0_/g6' is referencing an undefined model or subcircuit, `sg13g2_inv_1'. Either include the file containing the definition of `sg13g2_inv_1', or define `sg13g2_inv_1' before running the simulation.
    ERROR (SFE-23): "tempus_pathsim/path_1_setup.sp" 821: The instance `Xcby_0__1_/mem_left_ipin_9/DFFR_1_/g6' is referencing an undefined model or subcircuit, `sg13g2_inv_1'. Either include the file containing the definition of `sg13g2_inv_1', or define `sg13g2_inv_1' before running the simulation.
    ERROR (SFE-23): "tempus_pathsim/path_1_setup.sp" 824: The instance `Xcby_0__1_/mem_left_ipin_9/DFFR_0_/g6' is referencing an undefined model or subcircuit, `sg13g2_inv_1'. Either include the file containing the definition of `sg13g2_inv_1', or define `sg13g2_inv_1' before running the simulation.
    ERROR (SFE-23): "tempus_pathsim/path_1_setup.sp" 827: The instance `Xcby_0__1_/mem_left_ipin_8/DFFR_1_/g6' is referencing an undefined model or subcircuit, `sg13g2_inv_1'. Either include the file containing the definition of `sg13g2_inv_1', or define `sg13g2_inv_1' before running the simulation.
    ERROR (SFE-23): "tempus_pathsim/path_1_setup.sp" 830: The instance `Xcby_0__1_/mem_left_ipin_8/DFFR_0_/g6' is referencing an undefined model or subcircuit, `sg13g2_inv_1'. Either include the file containing the definition of `sg13g2_inv_1', or define `sg13g2_inv_1' before running the simulation.
    ERROR (SFE-23): "tempus_pathsim/path_1_setup.sp" 833: The instance `Xcby_0__1_/mem_left_ipin_7/DFFR_1_/g6' is referencing an undefined model or subcircuit, `sg13g2_inv_1'. Either include the file containing the definition of `sg13g2_inv_1', or define `sg13g2_inv_1' before running the simulation.
    ERROR (SFE-23): "tempus_pathsim/path_1_setup.sp" 836: The instance `Xcby_0__1_/mem_left_ipin_7/DFFR_0_/g6' is referencing an undefined model or subcircuit, `sg13g2_inv_1'. Either include the file containing the definition of `sg13g2_inv_1', or define `sg13g2_inv_1' before running the simulation.
    ERROR (SFE-23): "tempus_pathsim/path_1_setup.sp" 839: The instance `Xcby_0__1_/mem_left_ipin_6/DFFR_1_/g6' is referencing an undefined model or subcircuit, `sg13g2_inv_1'. Either include the file containing the definition of `sg13g2_inv_1', or define `sg13g2_inv_1' before running the simulation.
    ERROR (SFE-23): "tempus_pathsim/path_1_setup.sp" 842: The instance `Xcby_0__1_/mem_left_ipin_6/DFFR_0_/g6' is referencing an undefined model or subcircuit, `sg13g2_inv_1'. Either include the file containing the definition of `sg13g2_inv_1', or define `sg13g2_inv_1' before running the simulation.
    ERROR (SFE-23): "tempus_pathsim/path_1_setup.sp" 845: The instance `Xcby_0__1_/mem_left_ipin_5/DFFR_1_/g6' is referencing an undefined model or subcircuit, `sg13g2_inv_1'. Either include the file containing the definition of `sg13g2_inv_1', or define `sg13g2_inv_1' before running the simulation.
    ERROR (SFE-23): "tempus_pathsim/path_1_setup.sp" 848: The instance `Xcby_0__1_/mem_left_ipin_5/DFFR_0_/g6' is referencing an undefined model or subcircuit, `sg13g2_inv_1'. Either include the file containing the definition of `sg13g2_inv_1', or define `sg13g2_inv_1' before running the simulation.
[...]
    ERROR (SFE-23): "tempus_pathsim/path_1_setup.sp" 15887: The instance `Xgrid_io_bottom_1__0_/logical_tile_io_mode_io__7/logical_tile_io_mode_physical__iopad_0/GPIO_DFFR_mem/DFFR_0_/g6' is referencing an undefined model or subcircuit, `sg13g2_inv_1'. Either include the file containing the definition of `sg13g2_inv_1', or define `sg13g2_inv_1' before running the simulation.
    ERROR (SFE-23): "tempus_pathsim/path_1_setup.sp" 15890: The instance `Xgrid_io_bottom_1__0_/logical_tile_io_mode_io__6/logical_tile_io_mode_physical__iopad_0/GPIO_DFFR_mem/DFFR_0_/g6' is referencing an undefined model or subcircuit, `sg13g2_inv_1'. Either include the file containing the definition of `sg13g2_inv_1', or define `sg13g2_inv_1' before running the simulation.
    ERROR (SFE-23): "tempus_pathsim/path_1_setup.sp" 15893: The instance `Xgrid_io_bottom_1__0_/logical_tile_io_mode_io__5/logical_tile_io_mode_physical__iopad_0/GPIO_DFFR_mem/DFFR_0_/g6' is referencing an undefined model or subcircuit, `sg13g2_inv_1'. Either include the file containing the definition of `sg13g2_inv_1', or define `sg13g2_inv_1' before running the simulation.
    ERROR (SFE-23): "tempus_pathsim/path_1_setup.sp" 15896: The instance `Xgrid_io_bottom_1__0_/logical_tile_io_mode_io__4/logical_tile_io_mode_physical__iopad_0/GPIO_DFFR_mem/DFFR_0_/g6' is referencing an undefined model or subcircuit, `sg13g2_inv_1'. Either include the file containing the definition of `sg13g2_inv_1', or define `sg13g2_inv_1' before running the simulation.
    ERROR (SFE-23): "tempus_pathsim/path_1_setup.sp" 15899: The instance `Xgrid_io_bottom_1__0_/logical_tile_io_mode_io__3/logical_tile_io_mode_physical__iopad_0/GPIO_DFFR_mem/DFFR_0_/g6' is referencing an undefined model or subcircuit, `sg13g2_inv_1'. Either include the file containing the definition of `sg13g2_inv_1', or define `sg13g2_inv_1' before running the simulation.
    ERROR (SFE-23): "tempus_pathsim/path_1_setup.sp" 15902: The instance `Xgrid_io_bottom_1__0_/logical_tile_io_mode_io__2/logical_tile_io_mode_physical__iopad_0/GPIO_DFFR_mem/DFFR_0_/g6' is referencing an undefined model or subcircuit, `sg13g2_inv_1'. Either include the file containing the definition of `sg13g2_inv_1', or define `sg13g2_inv_1' before running the simulation.
    ERROR (SFE-23): "tempus_pathsim/path_1_setup.sp" 15905: The instance `Xgrid_io_bottom_1__0_/logical_tile_io_mode_io__1/logical_tile_io_mode_physical__iopad_0/GPIO_DFFR_mem/DFFR_0_/g6' is referencing an undefined model or subcircuit, `sg13g2_inv_1'. Either include the file containing the definition of `sg13g2_inv_1', or define `sg13g2_inv_1' before running the simulation.
    ERROR (SFE-23): "tempus_pathsim/path_1_setup.sp" 15908: The instance `Xgrid_io_bottom_1__0_/logical_tile_io_mode_io__0/logical_tile_io_mode_physical__iopad_0/GPIO_DFFR_mem/DFFR_0_/g6' is referencing an undefined model or subcircuit, `sg13g2_inv_1'. Either include the file containing the definition of `sg13g2_inv_1', or define `sg13g2_inv_1' before running the simulation.
    ERROR (SFE-23): "tempus_pathsim/path_1_setup.sp" 15911: The instance `Xgrid_io_bottom_2__0_/logical_tile_io_mode_io__7/logical_tile_io_mode_physical__iopad_0/GPIO_DFFR_mem/DFFR_0_/g6' is referencing an undefined model or subcircuit, `sg13g2_inv_1'. Either include the file containing the definition of `sg13g2_inv_1', or define `sg13g2_inv_1' before running the simulation.
    ERROR (SFE-23): "tempus_pathsim/path_1_setup.sp" 15914: The instance `Xgrid_io_bottom_2__0_/logical_tile_io_mode_io__6/logical_tile_io_mode_physical__iopad_0/GPIO_DFFR_mem/DFFR_0_/g6' is referencing an undefined model or subcircuit, `sg13g2_inv_1'. Either include the file containing the definition of `sg13g2_inv_1', or define `sg13g2_inv_1' before running the simulation.
    ERROR (SFE-23): "tempus_pathsim/path_1_setup.sp" 15917: The instance `Xgrid_io_bottom_2__0_/logical_tile_io_mode_io__5/logical_tile_io_mode_physical__iopad_0/GPIO_DFFR_mem/DFFR_0_/g6' is referencing an undefined model or subcircuit, `sg13g2_inv_1'. Either include the file containing the definition of `sg13g2_inv_1', or define `sg13g2_inv_1' before running the simulation.
    ERROR (SFE-23): "tempus_pathsim/path_1_setup.sp" 15920: The instance `Xgrid_io_bottom_2__0_/logical_tile_io_mode_io__4/logical_tile_io_mode_physical__iopad_0/GPIO_DFFR_mem/DFFR_0_/g6' is referencing an undefined model or subcircuit, `sg13g2_inv_1'. Either include the file containing the definition of `sg13g2_inv_1', or define `sg13g2_inv_1' before running the simulation.
    ERROR (SFE-23): "tempus_pathsim/path_1_setup.sp" 15923: The instance `Xgrid_io_bottom_2__0_/logical_tile_io_mode_io__3/logical_tile_io_mode_physical__iopad_0/GPIO_DFFR_mem/DFFR_0_/g6' is referencing an undefined model or subcircuit, `sg13g2_inv_1'. Either include the file containing the definition of `sg13g2_inv_1', or define `sg13g2_inv_1' before running the simulation.
    ERROR (SFE-23): "tempus_pathsim/path_1_setup.sp" 15926: The instance `Xgrid_io_bottom_2__0_/logical_tile_io_mode_io__2/logical_tile_io_mode_physical__iopad_0/GPIO_DFFR_mem/DFFR_0_/g6' is referencing an undefined model or subcircuit, `sg13g2_inv_1'. Either include the file containing the definition of `sg13g2_inv_1', or define `sg13g2_inv_1' before running the simulation.
    ERROR (SFE-23): "tempus_pathsim/path_1_setup.sp" 15929: The instance `Xgrid_io_bottom_2__0_/logical_tile_io_mode_io__1/logical_tile_io_mode_physical__iopad_0/GPIO_DFFR_mem/DFFR_0_/g6' is referencing an undefined model or subcircuit, `sg13g2_inv_1'. Either include the file containing the definition of `sg13g2_inv_1', or define `sg13g2_inv_1' before running the simulation.
    ERROR (SFE-23): "tempus_pathsim/path_1_setup.sp" 15932: The instance `Xgrid_io_bottom_2__0_/logical_tile_io_mode_io__0/logical_tile_io_mode_physical__iopad_0/GPIO_DFFR_mem/DFFR_0_/g6' is referencing an undefined model or subcircuit, `sg13g2_inv_1'. Either include the file containing the definition of `sg13g2_inv_1', or define `sg13g2_inv_1' before running the simulation.
    ERROR (SFE-23): "tempus_pathsim/path_1_setup.sp" 15935: The instance `Xgrid_io_right_3__1_/logical_tile_io_mode_io__7/logical_tile_io_mode_physical__iopad_0/GPIO_DFFR_mem/DFFR_0_/g6' is referencing an undefined model or subcircuit, `sg13g2_inv_1'. Either include the file containing the definition of `sg13g2_inv_1', or define `sg13g2_inv_1' before running the simulation.
    ERROR (SFE-23): "tempus_pathsim/path_1_setup.sp" 15938: The instance `Xgrid_io_right_3__1_/logical_tile_io_mode_io__6/logical_tile_io_mode_physical__iopad_0/GPIO_DFFR_mem/DFFR_0_/g6' is referencing an undefined model or subcircuit, `sg13g2_inv_1'. Either include the file containing the definition of `sg13g2_inv_1', or define `sg13g2_inv_1' before running the simulation.
    ERROR (SFE-23): "tempus_pathsim/path_1_setup.sp" 15941: The instance `Xgrid_io_right_3__1_/logical_tile_io_mode_io__5/logical_tile_io_mode_physical__iopad_0/GPIO_DFFR_mem/DFFR_0_/g6' is referencing an undefined model or subcircuit, `sg13g2_inv_1'. Either include the file containing the definition of `sg13g2_inv_1', or define `sg13g2_inv_1' before running the simulation.
    ERROR (SFE-23): "tempus_pathsim/path_1_setup.sp" 15944: The instance `Xgrid_io_right_3__1_/logical_tile_io_mode_io__4/logical_tile_io_mode_physical__iopad_0/GPIO_DFFR_mem/DFFR_0_/g6' is referencing an undefined model or subcircuit, `sg13g2_inv_1'. Either include the file containing the definition of `sg13g2_inv_1', or define `sg13g2_inv_1' before running the simulation.
    ERROR (SFE-23): "tempus_pathsim/path_1_setup.sp" 15947: The instance `Xgrid_io_right_3__1_/logical_tile_io_mode_io__3/logical_tile_io_mode_physical__iopad_0/GPIO_DFFR_mem/DFFR_0_/g6' is referencing an undefined model or subcircuit, `sg13g2_inv_1'. Either include the file containing the definition of `sg13g2_inv_1', or define `sg13g2_inv_1' before running the simulation.
    ERROR (SFE-23): "tempus_pathsim/path_1_setup.sp" 15950: The instance `Xgrid_io_right_3__1_/logical_tile_io_mode_io__2/logical_tile_io_mode_physical__iopad_0/GPIO_DFFR_mem/DFFR_0_/g6' is referencing an undefined model or subcircuit, `sg13g2_inv_1'. Either include the file containing the definition of `sg13g2_inv_1', or define `sg13g2_inv_1' before running the simulation.
    ERROR (SFE-23): "tempus_pathsim/path_1_setup.sp" 15953: The instance `Xgrid_io_right_3__1_/logical_tile_io_mode_io__1/logical_tile_io_mode_physical__iopad_0/GPIO_DFFR_mem/DFFR_0_/g6' is referencing an undefined model or subcircuit, `sg13g2_inv_1'. Either include the file containing the definition of `sg13g2_inv_1', or define `sg13g2_inv_1' before running the simulation.
    ERROR (SFE-23): "tempus_pathsim/path_1_setup.sp" 15956: The instance `Xgrid_io_right_3__1_/logical_tile_io_mode_io__0/logical_tile_io_mode_physical__iopad_0/GPIO_DFFR_mem/DFFR_0_/g6' is referencing an undefined model or subcircuit, `sg13g2_inv_1'. Either include the file containing the definition of `sg13g2_inv_1', or define `sg13g2_inv_1' before running the simulation.
    ERROR (SFE-23): "tempus_pathsim/path_1_setup.sp" 15959: The instance `Xgrid_io_right_3__2_/logical_tile_io_mode_io__7/logical_tile_io_mode_physical__iopad_0/GPIO_DFFR_mem/DFFR_0_/g6' is referencing an undefined model or subcircuit, `sg13g2_inv_1'. Either include the file containing the definition of `sg13g2_inv_1', or define `sg13g2_inv_1' before running the simulation.
    ERROR (SFE-23): "tempus_pathsim/path_1_setup.sp" 15962: The instance `Xgrid_io_right_3__2_/logical_tile_io_mode_io__6/logical_tile_io_mode_physical__iopad_0/GPIO_DFFR_mem/DFFR_0_/g6' is referencing an undefined model or subcircuit, `sg13g2_inv_1'. Either include the file containing the definition of `sg13g2_inv_1', or define `sg13g2_inv_1' before running the simulation.
    ERROR (SFE-23): "tempus_pathsim/path_1_setup.sp" 15965: The instance `Xgrid_io_right_3__2_/logical_tile_io_mode_io__5/logical_tile_io_mode_physical__iopad_0/GPIO_DFFR_mem/DFFR_0_/g6' is referencing an undefined model or subcircuit, `sg13g2_inv_1'. Either include the file containing the definition of `sg13g2_inv_1', or define `sg13g2_inv_1' before running the simulation.
    ERROR (SFE-23): "tempus_pathsim/path_1_setup.sp" 15968: The instance `Xgrid_io_right_3__2_/logical_tile_io_mode_io__4/logical_tile_io_mode_physical__iopad_0/GPIO_DFFR_mem/DFFR_0_/g6' is referencing an undefined model or subcircuit, `sg13g2_inv_1'. Either include the file containing the definition of `sg13g2_inv_1', or define `sg13g2_inv_1' before running the simulation.
    ERROR (SFE-23): "tempus_pathsim/path_1_setup.sp" 15971: The instance `Xgrid_io_right_3__2_/logical_tile_io_mode_io__3/logical_tile_io_mode_physical__iopad_0/GPIO_DFFR_mem/DFFR_0_/g6' is referencing an undefined model or subcircuit, `sg13g2_inv_1'. Either include the file containing the definition of `sg13g2_inv_1', or define `sg13g2_inv_1' before running the simulation.
    ERROR (SFE-23): "tempus_pathsim/path_1_setup.sp" 15974: The instance `Xgrid_io_right_3__2_/logical_tile_io_mode_io__2/logical_tile_io_mode_physical__iopad_0/GPIO_DFFR_mem/DFFR_0_/g6' is referencing an undefined model or subcircuit, `sg13g2_inv_1'. Either include the file containing the definition of `sg13g2_inv_1', or define `sg13g2_inv_1' before running the simulation.
    ERROR (SFE-23): "tempus_pathsim/path_1_setup.sp" 15977: The instance `Xgrid_io_right_3__2_/logical_tile_io_mode_io__1/logical_tile_io_mode_physical__iopad_0/GPIO_DFFR_mem/DFFR_0_/g6' is referencing an undefined model or subcircuit, `sg13g2_inv_1'. Either include the file containing the definition of `sg13g2_inv_1', or define `sg13g2_inv_1' before running the simulation.
    ERROR (SFE-23): "tempus_pathsim/path_1_setup.sp" 15980: The instance `Xgrid_io_right_3__2_/logical_tile_io_mode_io__0/logical_tile_io_mode_physical__iopad_0/GPIO_DFFR_mem/DFFR_0_/g6' is referencing an undefined model or subcircuit, `sg13g2_inv_1'. Either include the file containing the definition of `sg13g2_inv_1', or define `sg13g2_inv_1' before running the simulation.
    ERROR (SFE-23): "tempus_pathsim/path_1_setup.sp" 15983: The instance `Xgrid_io_top_2__3_/logical_tile_io_mode_io__7/logical_tile_io_mode_physical__iopad_0/GPIO_DFFR_mem/DFFR_0_/g6' is referencing an undefined model or subcircuit, `sg13g2_inv_1'. Either include the file containing the definition of `sg13g2_inv_1', or define `sg13g2_inv_1' before running the simulation.
    ERROR (SFE-23): "tempus_pathsim/path_1_setup.sp" 15986: The instance `Xgrid_io_top_2__3_/logical_tile_io_mode_io__6/logical_tile_io_mode_physical__iopad_0/GPIO_DFFR_mem/DFFR_0_/g6' is referencing an undefined model or subcircuit, `sg13g2_inv_1'. Either include the file containing the definition of `sg13g2_inv_1', or define `sg13g2_inv_1' before running the simulation.
    ERROR (SFE-23): "tempus_pathsim/path_1_setup.sp" 15989: The instance `Xgrid_io_top_2__3_/logical_tile_io_mode_io__5/logical_tile_io_mode_physical__iopad_0/GPIO_DFFR_mem/DFFR_0_/g6' is referencing an undefined model or subcircuit, `sg13g2_inv_1'. Either include the file containing the definition of `sg13g2_inv_1', or define `sg13g2_inv_1' before running the simulation.
    ERROR (SFE-23): "tempus_pathsim/path_1_setup.sp" 15992: The instance `Xgrid_io_top_2__3_/logical_tile_io_mode_io__4/logical_tile_io_mode_physical__iopad_0/GPIO_DFFR_mem/DFFR_0_/g6' is referencing an undefined model or subcircuit, `sg13g2_inv_1'. Either include the file containing the definition of `sg13g2_inv_1', or define `sg13g2_inv_1' before running the simulation.
    ERROR (SFE-23): "tempus_pathsim/path_1_setup.sp" 15995: The instance `Xgrid_io_top_2__3_/logical_tile_io_mode_io__3/logical_tile_io_mode_physical__iopad_0/GPIO_DFFR_mem/DFFR_0_/g6' is referencing an undefined model or subcircuit, `sg13g2_inv_1'. Either include the file containing the definition of `sg13g2_inv_1', or define `sg13g2_inv_1' before running the simulation.
    ERROR (SFE-23): "tempus_pathsim/path_1_setup.sp" 15998: The instance `Xgrid_io_top_2__3_/logical_tile_io_mode_io__2/logical_tile_io_mode_physical__iopad_0/GPIO_DFFR_mem/DFFR_0_/g6' is referencing an undefined model or subcircuit, `sg13g2_inv_1'. Either include the file containing the definition of `sg13g2_inv_1', or define `sg13g2_inv_1' before running the simulation.
    ERROR (SFE-23): "tempus_pathsim/path_1_setup.sp" 16001: The instance `Xgrid_io_top_2__3_/logical_tile_io_mode_io__1/logical_tile_io_mode_physical__iopad_0/GPIO_DFFR_mem/DFFR_0_/g6' is referencing an undefined model or subcircuit, `sg13g2_inv_1'. Either include the file containing the definition of `sg13g2_inv_1', or define `sg13g2_inv_1' before running the simulation.
    ERROR (SFE-23): "tempus_pathsim/path_1_setup.sp" 16004: The instance `Xgrid_io_top_2__3_/logical_tile_io_mode_io__0/logical_tile_io_mode_physical__iopad_0/GPIO_DFFR_mem/DFFR_0_/g6' is referencing an undefined model or subcircuit, `sg13g2_inv_1'. Either include the file containing the definition of `sg13g2_inv_1', or define `sg13g2_inv_1' before running the simulation.
    ERROR (SFE-23): "tempus_pathsim/path_1_setup.sp" 16007: The instance `Xgrid_io_top_1__3_/logical_tile_io_mode_io__7/logical_tile_io_mode_physical__iopad_0/GPIO_DFFR_mem/DFFR_0_/g6' is referencing an undefined model or subcircuit, `sg13g2_inv_1'. Either include the file containing the definition of `sg13g2_inv_1', or define `sg13g2_inv_1' before running the simulation.
    ERROR (SFE-23): "tempus_pathsim/path_1_setup.sp" 16010: The instance `Xgrid_io_top_1__3_/logical_tile_io_mode_io__6/logical_tile_io_mode_physical__iopad_0/GPIO_DFFR_mem/DFFR_0_/g6' is referencing an undefined model or subcircuit, `sg13g2_inv_1'. Either include the file containing the definition of `sg13g2_inv_1', or define `sg13g2_inv_1' before running the simulation.
    ERROR (SFE-23): "tempus_pathsim/path_1_setup.sp" 16013: The instance `Xgrid_io_top_1__3_/logical_tile_io_mode_io__5/logical_tile_io_mode_physical__iopad_0/GPIO_DFFR_mem/DFFR_0_/g6' is referencing an undefined model or subcircuit, `sg13g2_inv_1'. Either include the file containing the definition of `sg13g2_inv_1', or define `sg13g2_inv_1' before running the simulation.
    ERROR (SFE-23): "tempus_pathsim/path_1_setup.sp" 16016: The instance `Xgrid_io_top_1__3_/logical_tile_io_mode_io__4/logical_tile_io_mode_physical__iopad_0/GPIO_DFFR_mem/DFFR_0_/g6' is referencing an undefined model or subcircuit, `sg13g2_inv_1'. Either include the file containing the definition of `sg13g2_inv_1', or define `sg13g2_inv_1' before running the simulation.
    ERROR (SFE-23): "tempus_pathsim/path_1_setup.sp" 16019: The instance `Xgrid_io_top_1__3_/logical_tile_io_mode_io__3/logical_tile_io_mode_physical__iopad_0/GPIO_DFFR_mem/DFFR_0_/g6' is referencing an undefined model or subcircuit, `sg13g2_inv_1'. Either include the file containing the definition of `sg13g2_inv_1', or define `sg13g2_inv_1' before running the simulation.
    ERROR (SFE-23): "tempus_pathsim/path_1_setup.sp" 16022: The instance `Xgrid_io_top_1__3_/logical_tile_io_mode_io__2/logical_tile_io_mode_physical__iopad_0/GPIO_DFFR_mem/DFFR_0_/g6' is referencing an undefined model or subcircuit, `sg13g2_inv_1'. Either include the file containing the definition of `sg13g2_inv_1', or define `sg13g2_inv_1' before running the simulation.
    ERROR (SFE-23): "tempus_pathsim/path_1_setup.sp" 16025: The instance `Xgrid_io_top_1__3_/logical_tile_io_mode_io__1/logical_tile_io_mode_physical__iopad_0/GPIO_DFFR_mem/DFFR_0_/g6' is referencing an undefined model or subcircuit, `sg13g2_inv_1'. Either include the file containing the definition of `sg13g2_inv_1', or define `sg13g2_inv_1' before running the simulation.
    ERROR (SFE-23): "tempus_pathsim/path_1_setup.sp" 16028: The instance `Xgrid_io_top_1__3_/logical_tile_io_mode_io__0/logical_tile_io_mode_physical__iopad_0/GPIO_DFFR_mem/DFFR_0_/g6' is referencing an undefined model or subcircuit, `sg13g2_inv_1'. Either include the file containing the definition of `sg13g2_inv_1', or define `sg13g2_inv_1' before running the simulation.
Error found by spectre in `Stage2', during circuit read-in.
    ERROR (SFE-23): "tempus_pathsim/path_1_setup.sp" 37304: The instance `Xcby_2__2_/mem_right_ipin_9/DFFR_1_/g6' is referencing an undefined model or subcircuit, `sg13g2_inv_1'. Either include the file containing the definition of `sg13g2_inv_1', or define `sg13g2_inv_1' before running the simulation.
    ERROR (SFE-23): "tempus_pathsim/path_1_setup.sp" 37307: The instance `Xcby_2__2_/mem_right_ipin_9/DFFR_1_/q_reg_reg' is referencing an undefined model or subcircuit, `sg13g2_dfrbp_1'. Either include the file containing the definition of `sg13g2_dfrbp_1', or define `sg13g2_dfrbp_1' before running the simulation.

Time for Elaboration: CPU = 123.327 ms, elapsed = 7.32318 s.
Time accumulated: CPU = 1.12101 s, elapsed = 13.4397 s.
Peak resident memory used = 177 Mbytes.

Time for parsing: CPU = 9 us, elapsed = 9.05991 us.
Time accumulated: CPU = 1.12111 s, elapsed = 13.4398 s.
Peak resident memory used = 177 Mbytes.

~~~~~~~~~~~~~~~~~~~~~~
Pre-Simulation Summary
~~~~~~~~~~~~~~~~~~~~~~
   -   (APS) Multi-threading. The recommended number of threads is 8, consider adding +mt=8 on command line.
~~~~~~~~~~~~~~~~~~~~~~
Licensing Information:
Lic Summary:
[20:57:43.413096] Cdslmd servers:5280@hs-lic3.oth-regensburg.de:27003@hs-lic1.oth-regensburg.de:27003@hs-lic1.oth-regensburg.de:
[20:57:43.413120] Feature usage summary:
[20:57:43.413121] Virtuoso_Multi_mode_Simulation


Aggregate audit (8:57:44 PM, Thur Jul 17, 2025):
Time used: CPU = 1.13 s, elapsed = 13.9 s, util. = 8.14%.
Time spent in licensing: elapsed = 85.9 ms.
Peak memory used = 179 Mbytes.
Simulation started at: 8:57:30 PM, Thur Jul 17, 2025, ended at: 8:57:44 PM, Thur Jul 17, 2025, with elapsed time (wall clock): 13.9 s.
spectre completes with 5318 errors, 0 warnings, and 0 notices.
spectre terminated prematurely due to fatal error.
